
##########                                Name:     oleObject80.pdb
##########                DOCK_Rotatable_Bonds:                  14
##########                         Heavy_Atoms:                  51
##########                    Molecular_Weight:             703.283
##########                DOCK_Rotatable_Bonds:                  14
##########                       Formal_Charge:         0.000299793
##########                     HBond_Acceptors:                  10
##########                        HBond_Donors:                   3
##########                         Heavy_Atoms:                  51
##########                          Grid_Score:          -43.250576
##########                     Grid_vdw_energy:          -42.910744
##########                      Grid_es_energy:           -0.339831
##########           Internal_energy_repulsive:          173.813553

@<TRIPOS>MOLECULE
oleObject80.pdb
 94 99 1 0 0
SMALL
NO_CHARGES


@<TRIPOS>ATOM
      1 C          -9.3012    1.5900   59.6728 C.ar    1  UNL        -0.0620
      2 C         -10.5800    1.8251   59.1484 C.ar    1  UNL        -0.0590
      3 C         -11.2819    0.8048   58.4774 C.ar    1  UNL        -0.0456
      4 C         -10.6899   -0.4753   58.3284 C.ar    1  UNL        -0.0185
      5 C          -9.4015   -0.6963   58.8643 C.ar    1  UNL        -0.0565
      6 C          -8.7124    0.3272   59.5313 C.ar    1  UNL        -0.0619
      7 C         -11.4296   -1.6068   57.5925 C.3     1  UNL         0.0931
      8 C         -12.6290   -2.1752   58.3718 C.ar    1  UNL         0.0683
      9 C         -12.7860   -1.9469   59.7624 C.ar    1  UNL        -0.0272
     10 C         -13.9045   -2.5028   60.4113 C.ar    1  UNL        -0.0559
     11 C         -14.8238   -3.2550   59.6661 C.ar    1  UNL        -0.0435
     12 C         -14.5965   -3.4240   58.2927 C.ar    1  UNL         0.0272
     13 N         -13.5301   -2.8964   57.6632 N.ar    1  UNL        -0.2587
     14 C         -11.7895   -1.1225   60.5702 C.3     1  UNL        -0.0379
     15 N         -11.7390   -1.3032   56.1654 N.am    1  UNL        -0.2918
     16 C         -10.7086   -1.0422   55.2550 C.2     1  UNL         0.2180
     17 O          -9.5509   -1.3119   55.5311 O.2     1  UNL        -0.2772
     18 C         -11.1184   -0.7362   53.7926 C.3     1  UNL         0.0385
     19 C         -10.0329   -1.1795   52.7810 C.3     1  UNL        -0.0289
     20 C          -8.8034   -0.2486   52.8121 C.3     1  UNL        -0.0010
     21 N          -9.1772    1.1568   52.5448 N.4     1  UNL        -0.3010
     22 C         -10.2056    1.6726   53.4800 C.3     1  UNL        -0.0010
     23 C         -11.4560    0.7601   53.5567 C.3     1  UNL        -0.0289
     24 C          -7.9818    2.0204   52.4223 C.3     1  UNL         0.0222
     25 C          -7.2749    2.2865   53.7673 C.3     1  UNL         0.0661
     26 O          -6.4253    3.4350   53.5966 O.3     1  UNL        -0.3432
     27 C          -5.3752    3.7404   54.4410 C.ar    1  UNL         0.0937
     28 C          -5.5046    3.6959   55.8440 C.ar    1  UNL        -0.0284
     29 C          -4.4110    4.0159   56.6654 C.ar    1  UNL        -0.0381
     30 C          -3.1715    4.3701   56.1056 C.ar    1  UNL         0.0319
     31 C          -3.0503    4.4354   54.7040 C.ar    1  UNL        -0.0194
     32 C          -4.1409    4.1179   53.8778 C.ar    1  UNL         0.0727
     33 CL         -3.9380    4.2105   52.1382 Cl      1  UNL        -0.0814
     34 N          -2.1187    4.6968   56.9584 N.pl3   1  UNL        -0.3136
     35 C          -1.7716    4.2267   58.2246 C.ar    1  UNL         0.0489
     36 C          -2.3268    4.8321   59.3658 C.ar    1  UNL         0.0488
     37 N          -2.0581    4.4259   60.6227 N.ar    1  UNL        -0.2543
     38 C          -1.2304    3.3786   60.8323 C.ar    1  UNL         0.0703
     39 C          -0.6434    2.7015   59.7318 C.ar    1  UNL        -0.0339
     40 C          -0.9196    3.1246   58.4218 C.ar    1  UNL        -0.0371
     41 C          -0.9833    2.9801   62.2630 C.ar    1  UNL         0.0009
     42 C          -0.3759    1.7413   62.5961 C.ar    1  UNL        -0.0402
     43 C          -0.1396    1.3561   63.9324 C.ar    1  UNL         0.0375
     44 C          -0.5218    2.2330   64.9688 C.ar    1  UNL        -0.0496
     45 C          -1.1284    3.4607   64.6693 C.ar    1  UNL        -0.0608
     46 C          -1.3580    3.8288   63.3359 C.ar    1  UNL        -0.0528
     47 C           0.5094    0.0228   64.2157 C.2     1  UNL         0.2403
     48 O           0.3980   -0.5433   65.2884 O.2     1  UNL        -0.2722
     49 N           1.2488   -0.5529   63.2042 N.am    1  UNL        -0.3251
     50 C         -13.1582   -1.3742   55.7504 C.3     1  UNL         0.0037
     51 C         -12.6721    1.1175   57.9313 C.3     1  UNL        -0.0394
     52 H          -8.7695    2.3843   60.1890 H       1  UNL         0.0623
     53 H         -11.0274    2.8081   59.2658 H       1  UNL         0.0626
     54 H          -8.9251   -1.6675   58.7760 H       1  UNL         0.0627
     55 H          -7.7231    0.1398   59.9389 H       1  UNL         0.0623
     56 H         -10.7103   -2.4293   57.5683 H       1  UNL         0.0626
     57 H         -14.0599   -2.3548   61.4762 H       1  UNL         0.0627
     58 H         -15.6952   -3.6954   60.1416 H       1  UNL         0.0639
     59 H         -15.2876   -3.9986   57.6775 H       1  UNL         0.0840
     60 H         -10.8209   -1.6335   60.6383 H       1  UNL         0.0280
     61 H         -12.1430   -0.9508   61.5944 H       1  UNL         0.0280
     62 H         -11.6246   -0.1387   60.1136 H       1  UNL         0.0280
     63 H         -12.0363   -1.2973   53.5821 H       1  UNL         0.0402
     64 H         -10.4586   -1.1667   51.7693 H       1  UNL         0.0288
     65 H          -9.7185   -2.2111   52.9717 H       1  UNL         0.0288
     66 H          -8.0861   -0.5945   52.0567 H       1  UNL         0.0431
     67 H          -8.3161   -0.3266   53.7936 H       1  UNL         0.0431
     68 H         -10.5392    2.6694   53.1683 H       1  UNL         0.0431
     69 H          -9.7677    1.7757   54.4806 H       1  UNL         0.0431
     70 H         -12.0016    0.8483   52.6082 H       1  UNL         0.0288
     71 H         -12.1344    1.1219   54.3398 H       1  UNL         0.0288
     72 H          -8.2801    2.9910   52.0050 H       1  UNL         0.0455
     73 H          -7.2646    1.5683   51.7248 H       1  UNL         0.0455
     74 H          -6.6742    1.4160   54.0578 H       1  UNL         0.0586
     75 H          -8.0268    2.4818   54.5425 H       1  UNL         0.0586
     76 H          -6.4445    3.4178   56.3094 H       1  UNL         0.0652
     77 H          -4.5259    3.9784   57.7452 H       1  UNL         0.0644
     78 H          -2.1181    4.7524   54.2472 H       1  UNL         0.0659
     79 H          -1.4980    5.4098   56.5971 H       1  UNL         0.1528
     80 H          -3.0045    5.6795   59.2716 H       1  UNL         0.0861
     81 H           0.0272    1.8624   59.8813 H       1  UNL         0.0646
     82 H          -0.4903    2.5887   57.5811 H       1  UNL         0.0644
     83 H          -0.0967    1.0541   61.8050 H       1  UNL         0.0638
     84 H          -0.3570    1.9749   66.0102 H       1  UNL         0.0631
     85 H          -1.4210    4.1307   65.4729 H       1  UNL         0.0623
     86 H          -1.8241    4.7897   63.1373 H       1  UNL         0.0630
     87 H           1.7003   -1.4455   63.3518 H       1  UNL         0.1458
     88 H           1.3288   -0.0696   62.3186 H       1  UNL         0.1458
     89 H         -13.8274   -1.5063   56.6070 H       1  UNL         0.0433
     90 H         -13.3119   -2.2228   55.0736 H       1  UNL         0.0433
     91 H         -13.4352   -0.4471   55.2333 H       1  UNL         0.0433
     92 H         -12.9834    2.1409   58.1748 H       1  UNL         0.0280
     93 H         -13.4261    0.4421   58.3534 H       1  UNL         0.0280
     94 H         -12.7008    1.0210   56.8390 H       1  UNL         0.0280
@<TRIPOS>BOND
     1     1     2   ar
     2     1     6   ar
     3     1    52    1
     4     2     3   ar
     5     2    53    1
     6     3     4   ar
     7     3    51    1
     8     4     5   ar
     9     4     7    1
    10     5     6   ar
    11     5    54    1
    12     6    55    1
    13     7     8    1
    14     7    15    1
    15     7    56    1
    16     8     9   ar
    17     8    13   ar
    18     9    10   ar
    19     9    14    1
    20    10    11   ar
    21    10    57    1
    22    11    12   ar
    23    11    58    1
    24    12    13   ar
    25    12    59    1
    26    14    60    1
    27    14    61    1
    28    14    62    1
    29    15    16   am
    30    15    50    1
    31    16    17    2
    32    16    18    1
    33    18    19    1
    34    18    23    1
    35    18    63    1
    36    19    20    1
    37    19    64    1
    38    19    65    1
    39    20    21    1
    40    20    66    1
    41    20    67    1
    42    21    22    1
    43    21    24    1
    44    22    23    1
    45    22    68    1
    46    22    69    1
    47    23    70    1
    48    23    71    1
    49    24    25    1
    50    24    72    1
    51    24    73    1
    52    25    26    1
    53    25    74    1
    54    25    75    1
    55    26    27    1
    56    27    28   ar
    57    27    32   ar
    58    28    29   ar
    59    28    76    1
    60    29    30   ar
    61    29    77    1
    62    30    31   ar
    63    30    34    1
    64    31    32   ar
    65    31    78    1
    66    32    33    1
    67    34    35    1
    68    34    79    1
    69    35    36   ar
    70    35    40   ar
    71    36    37   ar
    72    36    80    1
    73    37    38   ar
    74    38    39   ar
    75    38    41    1
    76    39    40   ar
    77    39    81    1
    78    40    82    1
    79    41    42   ar
    80    41    46   ar
    81    42    43   ar
    82    42    83    1
    83    43    44   ar
    84    43    47    1
    85    44    45   ar
    86    44    84    1
    87    45    46   ar
    88    45    85    1
    89    46    86    1
    90    47    48    2
    91    47    49   am
    92    49    87    1
    93    49    88    1
    94    50    89    1
    95    50    90    1
    96    50    91    1
    97    51    92    1
    98    51    93    1
    99    51    94    1
@<TRIPOS>SUBSTRUCTURE
     1 UNL         1 TEMP              0 ****  ****    0 ROOT


##########                                Name:    ZINC001591898574
##########                DOCK_Rotatable_Bonds:                  10
##########                         Heavy_Atoms:                  26
##########                    Molecular_Weight:             383.434
##########                DOCK_Rotatable_Bonds:                  10
##########                       Formal_Charge:         5.96046e-08
##########                     HBond_Acceptors:                  13
##########                        HBond_Donors:                   3
##########                         Heavy_Atoms:                  26
##########                          Grid_Score:          -39.249039
##########                     Grid_vdw_energy:          -35.133068
##########                      Grid_es_energy:           -4.115969
##########           Internal_energy_repulsive:           10.538272

@<TRIPOS>MOLECULE
ZINC001591898574
 47 48 1 0 0
SMALL
USER_CHARGES


@<TRIPOS>ATOM
      1 C1         -3.4864    4.5472   52.0111 C.3     1  ZINC001591898574   -0.1100
      2 C2         -4.8615    4.0318   51.6721 C.ar    1  ZINC001591898574    0.2300
      3 C3         -5.5899    4.6060   50.6454 C.ar    1  ZINC001591898574   -0.2400
      4 C4         -6.8601    4.0967   50.3648 C.ar    1  ZINC001591898574    0.3000
      5 C5         -7.6805    4.6779   49.2733 C.2     1  ZINC001591898574    0.2100
      6 N6         -8.6990    4.1048   48.6631 N.2     1  ZINC001591898574   -0.2500
      7 N7         -9.1438    4.9300   47.7788 N.pl3   1  ZINC001591898574   -0.2200
      8 N8         -8.4400    6.0074   47.8092 N.2     1  ZINC001591898574   -0.0400
      9 N9         -7.5338    5.8901   48.7198 N.2     1  ZINC001591898574   -0.2500
     10 N10        -7.3230    3.0823   51.0909 N.ar    1  ZINC001591898574   -0.5500
     11 C11        -6.5928    2.5618   52.0649 C.ar    1  ZINC001591898574    0.5800
     12 N12        -7.1041    1.5072   52.8012 N.pl3   1  ZINC001591898574   -0.7000
     13 C13        -8.3948    0.9173   52.4371 C.3     1  ZINC001591898574    0.1400
     14 C14        -8.7782   -0.1464   53.4678 C.3     1  ZINC001591898574   -0.1500
     15 C15        -9.9245   -0.9984   52.9191 C.3     1  ZINC001591898574    0.1200
     16 N16       -11.0338   -0.9991   53.8760 N.am    1  ZINC001591898574   -0.7300
     17 C17       -10.9422   -1.7166   55.0133 C.2     1  ZINC001591898574    0.4900
     18 O18        -9.9408   -2.3604   55.2452 O.2     1  ZINC001591898574   -0.5300
     19 C19       -12.0840   -1.7188   55.9968 C.3     1  ZINC001591898574    0.1000
     20 N20       -11.5586   -1.5623   57.3554 N.am    1  ZINC001591898574   -0.9800
     21 C21       -10.7740   -0.3756   57.7052 C.3     1  ZINC001591898574    0.1000
     22 S22       -11.8515   -2.7269   58.4957 S.o2    1  ZINC001591898574    2.6100
     23 C23       -11.0247   -2.1154   59.9899 C.3     1  ZINC001591898574   -0.6600
     24 O24       -13.2625   -2.7067   58.6627 O.2     1  ZINC001591898574   -0.9500
     25 O25       -11.1894   -3.8808   57.9962 O.2     1  ZINC001591898574   -0.9600
     26 N26        -5.3831    3.0215   52.3496 N.ar    1  ZINC001591898574   -0.5600
     27 H27        -2.7419    4.0095   51.4239 H       1  ZINC001591898574    0.0900
     28 H28        -3.4305    5.6113   51.7820 H       1  ZINC001591898574    0.0900
     29 H29        -3.2923    4.3933   53.0726 H       1  ZINC001591898574    0.0900
     30 H30        -5.1861    5.4291   50.0745 H       1  ZINC001591898574    0.1600
     31 H31        -9.8918    4.7652   47.1836 H       1  ZINC001591898574    0.4800
     32 H32        -6.6078    1.1586   53.5581 H       1  ZINC001591898574    0.4200
     33 H33        -9.1574    1.6959   52.4175 H       1  ZINC001591898574    0.0700
     34 H34        -8.3192    0.4578   51.4516 H       1  ZINC001591898574    0.0700
     35 H35        -7.9171   -0.7831   53.6705 H       1  ZINC001591898574    0.0800
     36 H36        -9.0961    0.3394   54.3903 H       1  ZINC001591898574    0.0800
     37 H37       -10.2637   -0.5834   51.9700 H       1  ZINC001591898574    0.0700
     38 H38        -9.5766   -2.0200   52.7653 H       1  ZINC001591898574    0.0700
     39 H39       -11.8341   -0.4833   53.6911 H       1  ZINC001591898574    0.4000
     40 H40       -12.7594   -0.8936   55.7712 H       1  ZINC001591898574    0.1200
     41 H41       -12.6254   -2.6619   55.9230 H       1  ZINC001591898574    0.1300
     42 H42       -11.4405    0.4065   58.0688 H       1  ZINC001591898574    0.0600
     43 H43       -10.0555   -0.6316   58.4838 H       1  ZINC001591898574    0.0700
     44 H44       -10.2422   -0.0187   56.8232 H       1  ZINC001591898574    0.0700
     45 H45       -11.4507   -1.1528   60.2728 H       1  ZINC001591898574    0.1300
     46 H46       -11.1676   -2.8286   60.8019 H       1  ZINC001591898574    0.1200
     47 H47        -9.9592   -1.9975   59.7933 H       1  ZINC001591898574    0.1300
@<TRIPOS>BOND
     1     1     2    1
     2     1    27    1
     3     1    28    1
     4     1    29    1
     5     2    26   ar
     6     2     3   ar
     7     3     4   ar
     8     3    30    1
     9     4     5    1
    10     4    10   ar
    11     5     9    1
    12     5     6    2
    13     6     7    1
    14     7     8    1
    15     7    31    1
    16     8     9    2
    17    10    11   ar
    18    11    12    1
    19    11    26   ar
    20    12    13    1
    21    12    32    1
    22    13    14    1
    23    13    33    1
    24    13    34    1
    25    14    15    1
    26    14    35    1
    27    14    36    1
    28    15    16    1
    29    15    37    1
    30    15    38    1
    31    16    17   am
    32    16    39    1
    33    17    18    2
    34    17    19    1
    35    19    20    1
    36    19    40    1
    37    19    41    1
    38    20    21    1
    39    20    22   am
    40    21    42    1
    41    21    43    1
    42    21    44    1
    43    22    23    1
    44    22    24    2
    45    22    25    2
    46    23    45    1
    47    23    46    1
    48    23    47    1
@<TRIPOS>SUBSTRUCTURE
     1 ZINC001591898574        1 TEMP              0 ****  ****    0 ROOT


##########                                Name:     oleObject79.pdb
##########                DOCK_Rotatable_Bonds:                  12
##########                         Heavy_Atoms:                  53
##########                    Molecular_Weight:             725.376
##########                DOCK_Rotatable_Bonds:                  12
##########                       Formal_Charge:          0.00050066
##########                     HBond_Acceptors:                   8
##########                        HBond_Donors:                   4
##########                         Heavy_Atoms:                  53
##########                          Grid_Score:          -39.032227
##########                     Grid_vdw_energy:          -39.029789
##########                      Grid_es_energy:           -0.002438
##########           Internal_energy_repulsive:           27.476238

@<TRIPOS>MOLECULE
oleObject79.pdb
 102 108 1 0 0
SMALL
NO_CHARGES


@<TRIPOS>ATOM
      1 C          -9.0137    1.8858   60.9216 C.ar    1  UNL        -0.0620
      2 C          -8.9131    0.4896   60.8465 C.ar    1  UNL        -0.0590
      3 C          -9.7064   -0.2435   59.9423 C.ar    1  UNL        -0.0456
      4 C         -10.6184    0.4380   59.0932 C.ar    1  UNL        -0.0185
      5 C         -10.7044    1.8443   59.1839 C.ar    1  UNL        -0.0565
      6 C          -9.9113    2.5638   60.0889 C.ar    1  UNL        -0.0619
      7 C         -11.4732   -0.3042   58.0460 C.3     1  UNL         0.0931
      8 C         -12.7143   -1.0229   58.6074 C.ar    1  UNL         0.0683
      9 C         -13.3699   -2.0449   57.8741 C.ar    1  UNL        -0.0272
     10 C         -14.4993   -2.6614   58.4450 C.ar    1  UNL        -0.0559
     11 C         -14.9359   -2.2502   59.7124 C.ar    1  UNL        -0.0435
     12 C         -14.2274   -1.2337   60.3690 C.ar    1  UNL         0.0272
     13 N         -13.1474   -0.6374   59.8306 N.ar    1  UNL        -0.2587
     14 C         -12.8940   -2.4929   56.4959 C.3     1  UNL        -0.0379
     15 N         -11.7381    0.5534   56.8570 N.am    1  UNL        -0.2918
     16 C         -10.8284    0.5945   55.7981 C.2     1  UNL         0.2179
     17 O          -9.6855    0.1987   55.9576 O.2     1  UNL        -0.2772
     18 C         -11.1929    1.5177   54.6044 C.3     1  UNL         0.0361
     19 C         -10.6660    0.9904   53.2390 C.3     1  UNL        -0.0412
     20 C          -9.1318    1.1521   53.0540 C.3     1  UNL        -0.0453
     21 C          -8.5963    2.5863   53.3426 C.3     1  UNL        -0.0139
     22 C          -7.0476    2.5205   53.4513 C.3     1  UNL         0.0171
     23 N          -6.4695    3.8690   53.6217 N.pl3   1  UNL        -0.3290
     24 C          -6.7415    4.7857   52.4972 C.3     1  UNL         0.0115
     25 C          -8.2644    4.9233   52.2632 C.3     1  UNL        -0.0368
     26 C          -8.9604    3.5427   52.1620 C.3     1  UNL        -0.0446
     27 C          -5.5586    4.1550   54.6440 C.ar    1  UNL         0.0476
     28 C          -6.0432    4.6409   55.8741 C.ar    1  UNL        -0.0375
     29 C          -5.1645    4.9695   56.9177 C.ar    1  UNL        -0.0388
     30 C          -3.7773    4.8412   56.7490 C.ar    1  UNL         0.0318
     31 C          -3.2856    4.3399   55.5299 C.ar    1  UNL        -0.0202
     32 C          -4.1607    4.0045   54.4828 C.ar    1  UNL         0.0636
     33 CL         -3.4346    3.4679   52.9775 Cl      1  UNL        -0.0822
     34 N          -2.9354    5.1773   57.8073 N.pl3   1  UNL        -0.3149
     35 C          -1.8674    4.4976   58.3905 C.ar    1  UNL         0.0302
     36 C          -2.0227    3.2403   59.0030 C.ar    1  UNL        -0.0402
     37 C          -0.9178    2.5739   59.5565 C.ar    1  UNL        -0.0525
     38 C           0.3815    3.1374   59.5104 C.ar    1  UNL        -0.0182
     39 C           0.5226    4.3954   58.8735 C.ar    1  UNL        -0.0525
     40 C          -0.5824    5.0588   58.3157 C.ar    1  UNL        -0.0402
     41 C           1.5638    2.4262   60.1024 C.ar    1  UNL        -0.0177
     42 C           1.4157    1.5398   61.1995 C.ar    1  UNL        -0.0439
     43 C           2.5172    0.8654   61.7701 C.ar    1  UNL         0.0111
     44 C           3.7998    1.0869   61.2270 C.ar    1  UNL        -0.0518
     45 C           3.9722    1.9575   60.1414 C.ar    1  UNL        -0.0609
     46 C           2.8679    2.6186   59.5849 C.ar    1  UNL        -0.0543
     47 C           2.3405   -0.0070   62.8489 C.2     1  UNL         0.1014
     48 N           3.2079   -0.8995   63.1576 N.3     1  UNL        -0.2892
     49 N           1.2386    0.0540   63.6088 N.3     1  UNL        -0.2870
     50 C          -9.1707    3.0893   54.7037 C.3     1  UNL        -0.0453
     51 C         -10.7066    2.9762   54.8084 C.3     1  UNL        -0.0412
     52 C         -12.9993    1.3259   56.8245 C.3     1  UNL         0.0037
     53 C          -9.5286   -1.7575   59.8992 C.3     1  UNL        -0.0394
     54 H          -8.3953    2.4416   61.6196 H       1  UNL         0.0623
     55 H          -8.2079   -0.0253   61.4925 H       1  UNL         0.0626
     56 H         -11.3921    2.3893   58.5459 H       1  UNL         0.0627
     57 H          -9.9911    3.6456   60.1415 H       1  UNL         0.0623
     58 H         -10.8571   -1.1266   57.6791 H       1  UNL         0.0626
     59 H         -15.0305   -3.4478   57.9163 H       1  UNL         0.0627
     60 H         -15.8033   -2.7097   60.1769 H       1  UNL         0.0639
     61 H         -14.5317   -0.8858   61.3554 H       1  UNL         0.0840
     62 H         -12.9306   -1.6668   55.7755 H       1  UNL         0.0280
     63 H         -13.5188   -3.3010   56.0957 H       1  UNL         0.0280
     64 H         -11.8634   -2.8669   56.5329 H       1  UNL         0.0280
     65 H         -12.2879    1.5289   54.5422 H       1  UNL         0.0401
     66 H         -11.1754    1.5340   52.4332 H       1  UNL         0.0275
     67 H         -10.9427   -0.0646   53.1156 H       1  UNL         0.0275
     68 H          -8.8591    0.8490   52.0349 H       1  UNL         0.0273
     69 H          -8.6177    0.4428   53.7132 H       1  UNL         0.0273
     70 H          -6.6353    2.0609   52.5435 H       1  UNL         0.0474
     71 H          -6.7745    1.8796   54.2999 H       1  UNL         0.0474
     72 H          -6.2763    4.3843   51.5878 H       1  UNL         0.0468
     73 H          -6.3032    5.7744   52.6802 H       1  UNL         0.0468
     74 H          -8.4434    5.4948   51.3439 H       1  UNL         0.0283
     75 H          -8.7113    5.5030   53.0794 H       1  UNL         0.0283
     76 H          -8.6469    3.0775   51.2182 H       1  UNL         0.0273
     77 H         -10.0445    3.6842   52.0844 H       1  UNL         0.0273
     78 H          -7.1119    4.7589   56.0283 H       1  UNL         0.0644
     79 H          -5.5647    5.3410   57.8569 H       1  UNL         0.0643
     80 H          -2.2180    4.2035   55.3878 H       1  UNL         0.0659
     81 H          -3.1197    6.0857   58.2131 H       1  UNL         0.1528
     82 H          -2.9955    2.7623   59.0378 H       1  UNL         0.0643
     83 H          -1.0806    1.6139   60.0363 H       1  UNL         0.0630
     84 H           1.5012    4.8571   58.7894 H       1  UNL         0.0630
     85 H          -0.4387    6.0186   57.8274 H       1  UNL         0.0643
     86 H           0.4246    1.3683   61.6082 H       1  UNL         0.0637
     87 H           4.6680    0.5764   61.6344 H       1  UNL         0.0630
     88 H           4.9646    2.1213   59.7309 H       1  UNL         0.0623
     89 H           3.0326    3.3003   58.7562 H       1  UNL         0.0629
     90 H           3.1474   -1.1337   64.1507 H       1  UNL         0.1889
     91 H           1.1828    0.7294   64.3690 H       1  UNL         0.1258
     92 H           0.3220    0.0178   63.1662 H       1  UNL         0.1258
     93 H          -8.8763    4.1262   54.9000 H       1  UNL         0.0273
     94 H          -8.7255    2.4977   55.5118 H       1  UNL         0.0273
     95 H         -11.1754    3.6233   54.0574 H       1  UNL         0.0275
     96 H         -11.0338    3.3678   55.7771 H       1  UNL         0.0275
     97 H         -12.8030    2.3827   56.6119 H       1  UNL         0.0433
     98 H         -13.5291    1.2711   57.7823 H       1  UNL         0.0433
     99 H         -13.6512    0.9213   56.0404 H       1  UNL         0.0433
    100 H          -8.8342   -2.1084   60.6727 H       1  UNL         0.0280
    101 H          -9.1256   -2.0779   58.9303 H       1  UNL         0.0280
    102 H         -10.4835   -2.2728   60.0619 H       1  UNL         0.0280
@<TRIPOS>BOND
     1     1     2   ar
     2     1     6   ar
     3     1    54    1
     4     2     3   ar
     5     2    55    1
     6     3     4   ar
     7     3    53    1
     8     4     5   ar
     9     4     7    1
    10     5     6   ar
    11     5    56    1
    12     6    57    1
    13     7     8    1
    14     7    15    1
    15     7    58    1
    16     8     9   ar
    17     8    13   ar
    18     9    10   ar
    19     9    14    1
    20    10    11   ar
    21    10    59    1
    22    11    12   ar
    23    11    60    1
    24    12    13   ar
    25    12    61    1
    26    14    62    1
    27    14    63    1
    28    14    64    1
    29    15    16   am
    30    15    52    1
    31    16    17    2
    32    16    18    1
    33    18    19    1
    34    18    51    1
    35    18    65    1
    36    19    20    1
    37    19    66    1
    38    19    67    1
    39    20    21    1
    40    20    68    1
    41    20    69    1
    42    21    22    1
    43    21    26    1
    44    21    50    1
    45    22    23    1
    46    22    70    1
    47    22    71    1
    48    23    24    1
    49    23    27    1
    50    24    25    1
    51    24    72    1
    52    24    73    1
    53    25    26    1
    54    25    74    1
    55    25    75    1
    56    26    76    1
    57    26    77    1
    58    27    28   ar
    59    27    32   ar
    60    28    29   ar
    61    28    78    1
    62    29    30   ar
    63    29    79    1
    64    30    31   ar
    65    30    34    1
    66    31    32   ar
    67    31    80    1
    68    32    33    1
    69    34    35    1
    70    34    81    1
    71    35    36   ar
    72    35    40   ar
    73    36    37   ar
    74    36    82    1
    75    37    38   ar
    76    37    83    1
    77    38    39   ar
    78    38    41    1
    79    39    40   ar
    80    39    84    1
    81    40    85    1
    82    41    42   ar
    83    41    46   ar
    84    42    43   ar
    85    42    86    1
    86    43    44   ar
    87    43    47    1
    88    44    45   ar
    89    44    87    1
    90    45    46   ar
    91    45    88    1
    92    46    89    1
    93    47    48    1
    94    47    49    1
    95    48    90    1
    96    49    91    1
    97    49    92    1
    98    50    51    1
    99    50    93    1
   100    50    94    1
   101    51    95    1
   102    51    96    1
   103    52    97    1
   104    52    98    1
   105    52    99    1
   106    53   100    1
   107    53   101    1
   108    53   102    1
@<TRIPOS>SUBSTRUCTURE
     1 UNL         1 TEMP              0 ****  ****    0 ROOT


##########                                Name:    ZINC000508765459
##########                DOCK_Rotatable_Bonds:                  10
##########                         Heavy_Atoms:                  29
##########                    Molecular_Weight:               405.5
##########                DOCK_Rotatable_Bonds:                  10
##########                       Formal_Charge:         -6.4075e-07
##########                     HBond_Acceptors:                  10
##########                        HBond_Donors:                   1
##########                         Heavy_Atoms:                  29
##########                          Grid_Score:          -38.809647
##########                     Grid_vdw_energy:          -36.016804
##########                      Grid_es_energy:           -2.792842
##########           Internal_energy_repulsive:           17.914976

@<TRIPOS>MOLECULE
ZINC000508765459
 60 62 1 0 0
SMALL
USER_CHARGES


@<TRIPOS>ATOM
      1 C1         -1.0751   -2.8425   48.4660 C.3     1  ZINC000508765459    0.0300
      2 O2          0.1843   -2.4322   49.0024 O.3     1  ZINC000508765459   -0.3900
      3 C3          0.1264   -1.2230   49.7617 C.3     1  ZINC000508765459    0.0500
      4 C4          1.5428   -0.8003   50.1563 C.3     1  ZINC000508765459    0.1100
      5 N5          1.4910    0.4830   50.8609 N.am    1  ZINC000508765459   -0.5900
      6 C6          1.6949    0.4724   52.3031 C.3     1  ZINC000508765459    0.1000
      7 C7          2.1451    1.8485   52.7975 C.3     1  ZINC000508765459    0.1200
      8 N8          1.2709    2.8647   52.1876 N.am    1  ZINC000508765459   -0.6400
      9 C9          0.4982    3.6697   52.9433 C.2     1  ZINC000508765459    0.7100
     10 O10        -0.2155    4.4995   52.4138 O.2     1  ZINC000508765459   -0.5800
     11 N11         0.5166    3.5549   54.2861 N.am    1  ZINC000508765459   -0.7400
     12 C12        -0.3247    4.4288   55.1076 C.3     1  ZINC000508765459    0.1400
     13 C13        -0.5293    3.7928   56.4841 C.3     1  ZINC000508765459   -0.1400
     14 C14         0.7861    3.8321   57.2645 C.3     1  ZINC000508765459    0.0600
     15 N15         0.7023    2.9183   58.4115 N.3     1  ZINC000508765459   -0.5400
     16 C16        -0.3024    3.3792   59.3800 C.3     1  ZINC000508765459    0.0500
     17 C17        -0.4155    2.3613   60.5173 C.3     1  ZINC000508765459    0.0700
     18 N18         0.8965    2.2010   61.1598 N.3     1  ZINC000508765459   -0.4600
     19 C19         0.8175    1.3398   62.2406 C.ar    1  ZINC000508765459    0.4900
     20 N20        -0.3072    1.2791   62.9383 N.ar    1  ZINC000508765459   -0.5500
     21 C21        -0.4159    0.4665   63.9764 C.ar    1  ZINC000508765459    0.1700
     22 C22         0.6645   -0.3263   64.3303 C.ar    1  ZINC000508765459   -0.2600
     23 C23         1.8258   -0.2379   63.5789 C.ar    1  ZINC000508765459    0.1700
     24 N24         1.8666    0.5919   62.5495 N.ar    1  ZINC000508765459   -0.5300
     25 C25         1.9011    1.7400   60.1915 C.3     1  ZINC000508765459    0.0700
     26 C26         2.0141    2.7578   59.0541 C.3     1  ZINC000508765459    0.0600
     27 C27         1.2760    2.9656   50.7206 C.3     1  ZINC000508765459    0.1000
     28 C28         1.2656    1.5798   50.1361 C.2     1  ZINC000508765459    0.5100
     29 O29         1.0333    1.4528   48.9525 O.2     1  ZINC000508765459   -0.5400
     30 H30        -1.4589   -2.0656   47.8047 H       1  ZINC000508765459    0.0400
     31 H31        -0.9466   -3.7674   47.9036 H       1  ZINC000508765459    0.0900
     32 H32        -1.7805   -3.0076   49.2804 H       1  ZINC000508765459    0.0400
     33 H33        -0.3328   -0.4382   49.1606 H       1  ZINC000508765459    0.0500
     34 H34        -0.4677   -1.3867   50.6608 H       1  ZINC000508765459    0.0600
     35 H35         1.9790   -1.5561   50.8095 H       1  ZINC000508765459    0.1100
     36 H36         2.1546   -0.6982   49.2598 H       1  ZINC000508765459    0.0900
     37 H37         0.7609    0.2021   52.7956 H       1  ZINC000508765459    0.0700
     38 H38         2.4576   -0.2654   52.5521 H       1  ZINC000508765459    0.1000
     39 H39         2.0610    1.8947   53.8833 H       1  ZINC000508765459    0.1200
     40 H40         3.1786    2.0261   52.5003 H       1  ZINC000508765459    0.0800
     41 H41         1.0869    2.8937   54.7085 H       1  ZINC000508765459    0.4000
     42 H42         0.1617    5.3973   55.2234 H       1  ZINC000508765459    0.0700
     43 H43        -1.2914    4.5633   54.6222 H       1  ZINC000508765459    0.0700
     44 H44        -1.2927    4.3468   57.0303 H       1  ZINC000508765459    0.0700
     45 H45        -0.8487    2.7578   56.3622 H       1  ZINC000508765459    0.0800
     46 H46         1.6042    3.5241   56.6136 H       1  ZINC000508765459    0.0800
     47 H47         0.9672    4.8464   57.6205 H       1  ZINC000508765459    0.0400
     48 H48        -0.0007    4.3452   59.7850 H       1  ZINC000508765459    0.0500
     49 H49        -1.2676    3.4782   58.8833 H       1  ZINC000508765459    0.0900
     50 H50        -1.1391    2.7153   61.2515 H       1  ZINC000508765459    0.0900
     51 H51        -0.7434    1.4024   60.1160 H       1  ZINC000508765459    0.0600
     52 H52        -1.3352    0.4216   64.5414 H       1  ZINC000508765459    0.1700
     53 H53         0.6029   -0.9983   65.1736 H       1  ZINC000508765459    0.1500
     54 H54         2.6857   -0.8417   63.8285 H       1  ZINC000508765459    0.1700
     55 H55         2.8664    1.6409   60.6881 H       1  ZINC000508765459    0.1000
     56 H56         1.5994    0.7741   59.7865 H       1  ZINC000508765459    0.0500
     57 H57         2.7378    2.4037   58.3199 H       1  ZINC000508765459    0.0900
     58 H58         2.3422    3.7167   59.4555 H       1  ZINC000508765459    0.0500
     59 H59         0.3925    3.5113   50.3892 H       1  ZINC000508765459    0.1100
     60 H60         2.1744    3.4892   50.3938 H       1  ZINC000508765459    0.1100
@<TRIPOS>BOND
     1     1     2    1
     2     1    30    1
     3     1    31    1
     4     1    32    1
     5     2     3    1
     6     3     4    1
     7     3    33    1
     8     3    34    1
     9     4     5    1
    10     4    35    1
    11     4    36    1
    12     5    28   am
    13     5     6    1
    14     6     7    1
    15     6    37    1
    16     6    38    1
    17     7     8    1
    18     7    39    1
    19     7    40    1
    20     8     9   am
    21     8    27    1
    22     9    10    2
    23     9    11   am
    24    11    12    1
    25    11    41    1
    26    12    13    1
    27    12    42    1
    28    12    43    1
    29    13    14    1
    30    13    44    1
    31    13    45    1
    32    14    15    1
    33    14    46    1
    34    14    47    1
    35    15    26    1
    36    15    16    1
    37    16    17    1
    38    16    48    1
    39    16    49    1
    40    17    18    1
    41    17    50    1
    42    17    51    1
    43    18    19    1
    44    18    25    1
    45    19    24   ar
    46    19    20   ar
    47    20    21   ar
    48    21    22   ar
    49    21    52    1
    50    22    23   ar
    51    22    53    1
    52    23    24   ar
    53    23    54    1
    54    25    26    1
    55    25    55    1
    56    25    56    1
    57    26    57    1
    58    26    58    1
    59    27    28    1
    60    27    59    1
    61    27    60    1
    62    28    29    2
@<TRIPOS>SUBSTRUCTURE
     1 ZINC000508765459        1 TEMP              0 ****  ****    0 ROOT


##########                                Name:    ZINC000637608314
##########                DOCK_Rotatable_Bonds:                   9
##########                         Heavy_Atoms:                  28
##########                    Molecular_Weight:             387.479
##########                DOCK_Rotatable_Bonds:                   9
##########                       Formal_Charge:           0.0499991
##########                     HBond_Acceptors:                   7
##########                        HBond_Donors:                   2
##########                         Heavy_Atoms:                  28
##########                          Grid_Score:          -38.681313
##########                     Grid_vdw_energy:          -36.207756
##########                      Grid_es_energy:           -2.473556
##########           Internal_energy_repulsive:           14.762290

@<TRIPOS>MOLECULE
ZINC000637608314
 57 59 1 0 0
SMALL
USER_CHARGES


@<TRIPOS>ATOM
      1 C1         -2.8532    3.3602   58.2977 C.3     1  ZINC000637608314   -0.1400
      2 C2         -1.3381    3.5723   58.3206 C.3     1  ZINC000637608314   -0.0400
      3 C3         -1.0201    4.9065   58.9984 C.3     1  ZINC000637608314   -0.1500
      4 C4         -0.6756    2.4340   59.0992 C.3     1  ZINC000637608314   -0.1500
      5 C5         -0.8117    3.5880   56.9086 C.2     1  ZINC000637608314    0.1900
      6 C6          0.5045    3.8127   56.6873 C.2     1  ZINC000637608314   -0.2400
      7 C7          1.0010    3.8286   55.3762 C.2     1  ZINC000637608314    0.0200
      8 C8          0.1445    3.6160   54.3363 C.2     1  ZINC000637608314   -0.2400
      9 C9          0.6521    3.6274   52.9173 C.3     1  ZINC000637608314    0.2100
     10 N10         1.1931    2.3080   52.5816 N.am    1  ZINC000637608314   -0.7300
     11 C11         1.3158    1.9383   51.2914 C.2     1  ZINC000637608314    0.7100
     12 O12         0.9759    2.6992   50.4061 O.2     1  ZINC000637608314   -0.5900
     13 N13         1.8150    0.7251   50.9825 N.am    1  ZINC000637608314   -0.6200
     14 C14         1.9499    0.3239   49.5801 C.3     1  ZINC000637608314    0.2000
     15 C15         0.6218   -0.1729   49.0697 C.2     1  ZINC000637608314   -0.0400
     16 C16         0.2236   -1.4573   49.0335 C.2     1  ZINC000637608314   -0.1900
     17 C17        -1.0790   -1.4668   48.4838 C.2     1  ZINC000637608314   -0.2200
     18 C18        -1.3989   -0.1878   48.2170 C.2     1  ZINC000637608314   -0.0300
     19 O19        -0.3671    0.5920   48.5793 O.3     1  ZINC000637608314   -0.1700
     20 C20         2.2227   -0.1924   52.0494 C.3     1  ZINC000637608314    0.1300
     21 C21         3.7198   -0.0284   52.3187 C.3     1  ZINC000637608314    0.0700
     22 H22         4.2858   -0.2690   51.4187 H       1  ZINC000637608314    0.0900
     23 C23         4.1496   -0.9598   53.4723 C.3     1  ZINC000637608314   -0.1500
     24 C24         5.1581   -0.0737   54.2531 C.3     1  ZINC000637608314   -0.1600
     25 C25         4.5306    1.3292   54.0566 C.3     1  ZINC000637608314    0.0500
     26 O26         3.9965    1.3182   52.7212 O.3     1  ZINC000637608314   -0.3800
     27 C27        -1.2162    3.3857   54.6018 C.2     1  ZINC000637608314    0.5300
     28 O28        -1.9935    3.1936   53.6805 O.2     1  ZINC000637608314   -0.5400
     29 N29        -1.6617    3.3711   55.8725 N.am    1  ZINC000637608314   -0.6000
     30 H30        -3.3253    4.1711   57.7431 H       1  ZINC000637608314    0.0700
     31 H31        -3.0797    2.4097   57.8149 H       1  ZINC000637608314    0.0700
     32 H32        -3.2339    3.3487   59.3190 H       1  ZINC000637608314    0.0700
     33 H33        -1.4008    4.8951   60.0197 H       1  ZINC000637608314    0.0700
     34 H34         0.0593    5.0576   59.0148 H       1  ZINC000637608314    0.0600
     35 H35        -1.4921    5.7175   58.4438 H       1  ZINC000637608314    0.0700
     36 H36        -0.9021    1.4834   58.6163 H       1  ZINC000637608314    0.0700
     37 H37         0.4038    2.5851   59.1155 H       1  ZINC000637608314    0.0600
     38 H38        -1.0563    2.4226   60.1205 H       1  ZINC000637608314    0.0700
     39 H39         1.1718    3.9800   57.5199 H       1  ZINC000637608314    0.1500
     40 H40         2.0500    4.0077   55.1919 H       1  ZINC000637608314    0.1400
     41 H41        -0.1678    3.8669   52.2402 H       1  ZINC000637608314    0.0800
     42 H42         1.4364    4.3777   52.8180 H       1  ZINC000637608314    0.0800
     43 H43         1.4631    1.7005   53.2881 H       1  ZINC000637608314    0.4000
     44 H44         2.2700    1.1801   48.9863 H       1  ZINC000637608314    0.1200
     45 H45         2.6907   -0.4715   49.4993 H       1  ZINC000637608314    0.0900
     46 H46         0.7903   -2.3163   49.3609 H       1  ZINC000637608314    0.1500
     47 H47        -1.6983   -2.3346   48.3109 H       1  ZINC000637608314    0.1500
     48 H48        -2.3290    0.1544   47.7881 H       1  ZINC000637608314    0.2000
     49 H49         1.6633    0.0344   52.9571 H       1  ZINC000637608314    0.0800
     50 H50         2.0187   -1.2186   51.7438 H       1  ZINC000637608314    0.1000
     51 H51         3.2964   -1.2207   54.0986 H       1  ZINC000637608314    0.0800
     52 H52         4.6373   -1.8552   53.0869 H       1  ZINC000637608314    0.0900
     53 H53         5.1866   -0.3471   55.3080 H       1  ZINC000637608314    0.0800
     54 H54         6.1522   -0.1252   53.8089 H       1  ZINC000637608314    0.0800
     55 H55         3.7337    1.4922   54.7821 H       1  ZINC000637608314    0.0600
     56 H56         5.2937    2.1017   54.1516 H       1  ZINC000637608314    0.0800
     57 H57        -2.6020    3.2112   56.0492 H       1  ZINC000637608314    0.4100
@<TRIPOS>BOND
     1     1     2    1
     2     1    30    1
     3     1    31    1
     4     1    32    1
     5     2     3    1
     6     2     4    1
     7     2     5    1
     8     3    33    1
     9     3    34    1
    10     3    35    1
    11     4    36    1
    12     4    37    1
    13     4    38    1
    14     5    29    1
    15     5     6    2
    16     6     7    1
    17     6    39    1
    18     7     8    2
    19     7    40    1
    20     8     9    1
    21     8    27    1
    22     9    10    1
    23     9    41    1
    24     9    42    1
    25    10    11   am
    26    10    43    1
    27    11    12    2
    28    11    13   am
    29    13    14    1
    30    13    20    1
    31    14    15    1
    32    14    44    1
    33    14    45    1
    34    15    19    1
    35    15    16    2
    36    16    17    1
    37    16    46    1
    38    17    18    2
    39    17    47    1
    40    18    19    1
    41    18    48    1
    42    20    21    1
    43    20    49    1
    44    20    50    1
    45    21    22    1
    46    21    26    1
    47    21    23    1
    48    23    24    1
    49    23    51    1
    50    23    52    1
    51    24    25    1
    52    24    53    1
    53    24    54    1
    54    25    26    1
    55    25    55    1
    56    25    56    1
    57    27    28    2
    58    27    29   am
    59    29    57    1
@<TRIPOS>SUBSTRUCTURE
     1 ZINC000637608314        1 TEMP              0 ****  ****    0 ROOT


##########                                Name:    ZINC000011620562
##########                DOCK_Rotatable_Bonds:                   9
##########                         Heavy_Atoms:                  29
##########                    Molecular_Weight:             417.448
##########                DOCK_Rotatable_Bonds:                   9
##########                       Formal_Charge:           0.0299999
##########                     HBond_Acceptors:                  12
##########                        HBond_Donors:                   1
##########                         Heavy_Atoms:                  29
##########                          Grid_Score:          -38.546158
##########                     Grid_vdw_energy:          -37.087620
##########                      Grid_es_energy:           -1.458536
##########           Internal_energy_repulsive:            5.324830

@<TRIPOS>MOLECULE
ZINC000011620562
 48 50 1 0 0
SMALL
USER_CHARGES


@<TRIPOS>ATOM
      1 C1         -7.4465    0.3218   65.1169 C.3     1  ZINC000011620562    0.0400
      2 O2         -7.5707   -0.0222   63.7117 O.3     1  ZINC000011620562   -0.3500
      3 C3         -8.8093   -0.0341   63.1944 C.2     1  ZINC000011620562    0.4600
      4 O4         -9.7626    0.1826   63.9043 O.2     1  ZINC000011620562   -0.5000
      5 C5         -9.0108   -0.3177   61.7281 C.3     1  ZINC000011620562    0.1300
      6 N6        -10.2441   -1.0866   61.5444 N.am    1  ZINC000011620562   -0.7200
      7 C7        -10.3984   -1.8626   60.4532 C.2     1  ZINC000011620562    0.5400
      8 O8         -9.5155   -1.9254   59.6241 O.2     1  ZINC000011620562   -0.5200
      9 C9        -11.6679   -2.6521   60.2634 C.3     1  ZINC000011620562   -0.1600
     10 S10       -12.9500   -1.5763   59.5744 S.3     1  ZINC000011620562    0.1400
     11 C11       -13.7472   -2.7091   58.4854 C.2     1  ZINC000011620562    0.2100
     12 N12       -14.5033   -3.7284   58.8336 N.2     1  ZINC000011620562   -0.3400
     13 N13       -14.9282   -4.3492   57.7928 N.2     1  ZINC000011620562   -0.0300
     14 N14       -14.4851   -3.7854   56.7217 N.2     1  ZINC000011620562   -0.0800
     15 N15       -13.7023   -2.6916   57.1308 N.pl3   1  ZINC000011620562   -0.2600
     16 C16       -13.0136   -1.7782   56.3097 C.2     1  ZINC000011620562   -0.1300
     17 C17       -13.5486   -0.6948   55.7024 C.2     1  ZINC000011620562    0.2500
     18 C18       -14.9879   -0.2568   55.7882 C.3     1  ZINC000011620562   -0.1100
     19 N19       -12.5597   -0.0639   54.9967 N.pl3   1  ZINC000011620562   -0.3700
     20 C20       -12.7189    1.1525   54.1959 C.3     1  ZINC000011620562    0.0900
     21 N21       -11.3693   -0.7813   55.1724 N.am    1  ZINC000011620562   -0.3600
     22 C22       -10.1264   -0.4642   54.6156 C.ar    1  ZINC000011620562    0.1400
     23 C23        -9.1967    0.2572   55.3537 C.ar    1  ZINC000011620562   -0.1300
     24 C24        -7.9699    0.5682   54.8010 C.ar    1  ZINC000011620562   -0.1000
     25 C25        -7.6666    0.1623   53.5144 C.ar    1  ZINC000011620562   -0.1100
     26 C26        -8.5899   -0.5557   52.7767 C.ar    1  ZINC000011620562   -0.1000
     27 C27        -9.8164   -0.8750   53.3256 C.ar    1  ZINC000011620562   -0.1000
     28 C28       -11.6347   -1.8292   55.9787 C.2     1  ZINC000011620562    0.5500
     29 O29       -10.8370   -2.6710   56.3497 O.2     1  ZINC000011620562   -0.5000
     30 H30        -8.0078   -0.3942   65.7172 H       1  ZINC000011620562    0.0700
     31 H31        -6.3959    0.2940   65.4062 H       1  ZINC000011620562    0.1100
     32 H32        -7.8424    1.3238   65.2820 H       1  ZINC000011620562    0.0700
     33 H33        -9.0846    0.6232   61.1828 H       1  ZINC000011620562    0.1200
     34 H34        -8.1650   -0.8918   61.3495 H       1  ZINC000011620562    0.1200
     35 H35       -10.9497   -1.0373   62.2082 H       1  ZINC000011620562    0.4200
     36 H36       -11.4820   -3.4800   59.5792 H       1  ZINC000011620562    0.1400
     37 H37       -11.9998   -3.0431   61.2252 H       1  ZINC000011620562    0.1400
     38 H38       -15.5421   -0.9511   56.4196 H       1  ZINC000011620562    0.1000
     39 H39       -15.0382    0.7440   56.2171 H       1  ZINC000011620562    0.1000
     40 H40       -15.4245   -0.2462   54.7894 H       1  ZINC000011620562    0.1000
     41 H41       -13.7624    1.4667   54.2160 H       1  ZINC000011620562    0.1100
     42 H42       -12.0931    1.9437   54.6088 H       1  ZINC000011620562    0.0900
     43 H43       -12.4195    0.9520   53.1672 H       1  ZINC000011620562    0.0900
     44 H44        -9.4333    0.5748   56.3585 H       1  ZINC000011620562    0.1300
     45 H45        -7.2468    1.1295   55.3743 H       1  ZINC000011620562    0.1300
     46 H46        -6.7064    0.4069   53.0846 H       1  ZINC000011620562    0.1300
     47 H47        -8.3501   -0.8706   51.7720 H       1  ZINC000011620562    0.1400
     48 H48       -10.5370   -1.4360   52.7491 H       1  ZINC000011620562    0.1400
@<TRIPOS>BOND
     1     1     2    1
     2     1    30    1
     3     1    31    1
     4     1    32    1
     5     2     3    1
     6     3     4    2
     7     3     5    1
     8     5     6    1
     9     5    33    1
    10     5    34    1
    11     6     7   am
    12     6    35    1
    13     7     8    2
    14     7     9    1
    15     9    10    1
    16     9    36    1
    17     9    37    1
    18    10    11    1
    19    11    15    1
    20    11    12    2
    21    12    13    1
    22    13    14    2
    23    14    15    1
    24    15    16    1
    25    16    28    1
    26    16    17    2
    27    17    18    1
    28    17    19    1
    29    18    38    1
    30    18    39    1
    31    18    40    1
    32    19    20    1
    33    19    21    1
    34    20    41    1
    35    20    42    1
    36    20    43    1
    37    21    22    1
    38    21    28   am
    39    22    27   ar
    40    22    23   ar
    41    23    24   ar
    42    23    44    1
    43    24    25   ar
    44    24    45    1
    45    25    26   ar
    46    25    46    1
    47    26    27   ar
    48    26    47    1
    49    27    48    1
    50    28    29    2
@<TRIPOS>SUBSTRUCTURE
     1 ZINC000011620562        1 TEMP              0 ****  ****    0 ROOT


##########                                Name:    ZINC000045927156
##########                DOCK_Rotatable_Bonds:                   7
##########                         Heavy_Atoms:                  30
##########                    Molecular_Weight:             418.522
##########                DOCK_Rotatable_Bonds:                   7
##########                       Formal_Charge:           0.0200001
##########                     HBond_Acceptors:                   8
##########                        HBond_Donors:                   1
##########                         Heavy_Atoms:                  30
##########                          Grid_Score:          -37.784710
##########                     Grid_vdw_energy:          -35.253353
##########                      Grid_es_energy:           -2.531355
##########           Internal_energy_repulsive:           16.591257

@<TRIPOS>MOLECULE
ZINC000045927156
 52 56 1 0 0
SMALL
USER_CHARGES


@<TRIPOS>ATOM
      1 O1        -10.3048   -2.9944   59.2275 O.2     1  ZINC000045927156   -0.5800
      2 C2        -10.5681   -1.9681   58.6310 C.2     1  ZINC000045927156    0.7300
      3 N3         -9.9459   -0.8188   58.9602 N.am    1  ZINC000045927156   -0.7400
      4 C4         -8.9567   -0.8048   60.0407 C.3     1  ZINC000045927156    0.1700
      5 C5         -8.8821    0.5778   60.6356 C.ar    1  ZINC000045927156   -0.0700
      6 C6         -8.9162    1.6872   59.8122 C.ar    1  ZINC000045927156   -0.1000
      7 C7         -8.8478    2.9556   60.3579 C.ar    1  ZINC000045927156   -0.1100
      8 C8         -8.7457    3.1141   61.7271 C.ar    1  ZINC000045927156   -0.1100
      9 C9         -8.7124    2.0044   62.5510 C.ar    1  ZINC000045927156   -0.1000
     10 C10        -8.7852    0.7365   62.0057 C.ar    1  ZINC000045927156   -0.1000
     11 C11        -8.7490   -0.4733   62.9037 C.3     1  ZINC000045927156    0.1700
     12 N12        -8.8659   -0.0480   64.3007 N.pl3   1  ZINC000045927156   -0.3800
     13 C13        -7.8592    0.2702   65.1330 C.2     1  ZINC000045927156    0.2500
     14 N14        -8.3766    0.5977   66.2892 N.2     1  ZINC000045927156   -0.5400
     15 C15        -9.7044    0.5012   66.2339 C.2     1  ZINC000045927156    0.2000
     16 N16       -10.0522    0.1143   65.0348 N.2     1  ZINC000045927156   -0.3100
     17 N17       -11.4782   -1.9810   57.6370 N.am    1  ZINC000045927156   -0.6200
     18 C18       -12.2293   -3.1624   57.1750 C.3     1  ZINC000045927156    0.1000
     19 C19       -13.5111   -2.5873   56.5224 C.3     1  ZINC000045927156   -0.1300
     20 C20       -12.9654   -1.3037   55.8426 C.3     1  ZINC000045927156   -0.1200
     21 C21       -11.8911   -0.8179   56.8381 C.3     1  ZINC000045927156    0.2300
     22 H22       -12.3076   -0.0462   57.4855 H       1  ZINC000045927156    0.1000
     23 C23       -10.7054   -0.2705   56.0859 C.2     1  ZINC000045927156    0.0900
     24 N24       -10.3624    0.9619   56.0818 N.2     1  ZINC000045927156   -0.4500
     25 C25        -9.2776    1.3105   55.3639 C.ar    1  ZINC000045927156    0.0800
     26 C26        -8.6851    2.5766   55.1856 C.ar    1  ZINC000045927156   -0.0700
     27 C27        -7.5756    2.7156   54.4077 C.ar    1  ZINC000045927156   -0.1100
     28 C28        -7.0079    1.6173   53.7778 C.ar    1  ZINC000045927156   -0.1000
     29 C29        -7.5653    0.3680   53.9342 C.ar    1  ZINC000045927156   -0.0700
     30 C30        -8.7001    0.2069   54.7259 C.ar    1  ZINC000045927156   -0.1800
     31 S31        -9.6482   -1.2182   55.1393 S.3     1  ZINC000045927156    0.1200
     32 H32       -10.1530   -0.0009   58.4816 H       1  ZINC000045927156    0.3900
     33 H33        -9.2508   -1.5169   60.8117 H       1  ZINC000045927156    0.1000
     34 H34        -7.9805   -1.0824   59.6432 H       1  ZINC000045927156    0.0700
     35 H35        -8.9961    1.5633   58.7422 H       1  ZINC000045927156    0.1300
     36 H36        -8.8738    3.8225   59.7145 H       1  ZINC000045927156    0.1300
     37 H37        -8.6916    4.1049   62.1535 H       1  ZINC000045927156    0.1300
     38 H38        -8.6323    2.1282   63.6209 H       1  ZINC000045927156    0.1300
     39 H39        -9.5783   -1.1354   62.6549 H       1  ZINC000045927156    0.1100
     40 H40        -7.8066   -1.0024   62.7626 H       1  ZINC000045927156    0.1000
     41 H41        -6.8071    0.2572   64.8899 H       1  ZINC000045927156    0.2200
     42 H42       -10.3833    0.7126   67.0467 H       1  ZINC000045927156    0.2200
     43 H43       -11.6468   -3.7190   56.4408 H       1  ZINC000045927156    0.0700
     44 H44       -12.4876   -3.8017   58.0192 H       1  ZINC000045927156    0.0800
     45 H45       -13.9172   -3.2781   55.7837 H       1  ZINC000045927156    0.0900
     46 H46       -14.2578   -2.3420   57.2777 H       1  ZINC000045927156    0.0800
     47 H47       -12.5218   -1.5386   54.8750 H       1  ZINC000045927156    0.0900
     48 H48       -13.7539   -0.5589   55.7358 H       1  ZINC000045927156    0.0900
     49 H49        -9.1137    3.4425   55.6684 H       1  ZINC000045927156    0.1300
     50 H50        -7.1327    3.6922   54.2793 H       1  ZINC000045927156    0.1400
     51 H51        -6.1282    1.7426   53.1640 H       1  ZINC000045927156    0.1400
     52 H52        -7.1234   -0.4863   53.4430 H       1  ZINC000045927156    0.1300
@<TRIPOS>BOND
     1     1     2    2
     2     2     3   am
     3     2    17   am
     4     3     4    1
     5     3    32    1
     6     4     5    1
     7     4    33    1
     8     4    34    1
     9     5    10   ar
    10     5     6   ar
    11     6     7   ar
    12     6    35    1
    13     7     8   ar
    14     7    36    1
    15     8     9   ar
    16     8    37    1
    17     9    10   ar
    18     9    38    1
    19    10    11    1
    20    11    12    1
    21    11    39    1
    22    11    40    1
    23    12    16    1
    24    12    13    1
    25    13    14    2
    26    13    41    1
    27    14    15    1
    28    15    16    2
    29    15    42    1
    30    17    21    1
    31    17    18    1
    32    18    19    1
    33    18    43    1
    34    18    44    1
    35    19    20    1
    36    19    45    1
    37    19    46    1
    38    20    21    1
    39    20    47    1
    40    20    48    1
    41    21    22    1
    42    21    23    1
    43    23    31    1
    44    23    24    2
    45    24    25    1
    46    25    30   ar
    47    25    26   ar
    48    26    27   ar
    49    26    49    1
    50    27    28   ar
    51    27    50    1
    52    28    29   ar
    53    28    51    1
    54    29    30   ar
    55    29    52    1
    56    30    31    1
@<TRIPOS>SUBSTRUCTURE
     1 ZINC000045927156        1 TEMP              0 ****  ****    0 ROOT


##########                                Name:    ZINC001060578637
##########                DOCK_Rotatable_Bonds:                  10
##########                         Heavy_Atoms:                  25
##########                    Molecular_Weight:             345.401
##########                DOCK_Rotatable_Bonds:                  10
##########                       Formal_Charge:          -0.0400001
##########                     HBond_Acceptors:                   8
##########                        HBond_Donors:                   3
##########                         Heavy_Atoms:                  25
##########                          Grid_Score:          -37.634342
##########                     Grid_vdw_energy:          -30.757248
##########                      Grid_es_energy:           -6.877093
##########           Internal_energy_repulsive:           16.525511

@<TRIPOS>MOLECULE
ZINC001060578637
 48 49 1 0 0
SMALL
USER_CHARGES


@<TRIPOS>ATOM
      1 C1         -0.3664    2.9325   58.9038 C.3     1  ZINC001060578637   -0.1500
      2 C2         -1.8182    3.3620   59.1239 C.3     1  ZINC001060578637   -0.1300
      3 C3         -2.5677    3.3288   57.7904 C.3     1  ZINC001060578637    0.0700
      4 H4         -2.6115    2.3034   57.4236 H       1  ZINC001060578637    0.0900
      5 O5         -1.8831    4.1461   56.8389 O.3     1  ZINC001060578637   -0.3600
      6 C6         -2.5039    4.1846   55.5523 C.3     1  ZINC001060578637    0.0300
      7 C7         -3.9670    3.8522   57.9874 C.2     1  ZINC001060578637    0.5000
      8 O8         -4.2176    4.5739   58.9293 O.2     1  ZINC001060578637   -0.5200
      9 N9         -4.9402    3.5181   57.1168 N.am    1  ZINC001060578637   -0.7300
     10 C10        -6.3002    4.0281   57.3072 C.3     1  ZINC001060578637    0.1600
     11 C11        -7.0600    3.1033   58.2229 C.ar    1  ZINC001060578637   -0.1100
     12 C12        -7.4922    1.8744   57.7605 C.ar    1  ZINC001060578637   -0.0900
     13 C13        -8.1891    1.0260   58.6004 C.ar    1  ZINC001060578637   -0.1100
     14 C14        -8.4534    1.4064   59.9029 C.ar    1  ZINC001060578637   -0.0900
     15 C15        -9.2136    0.4818   60.8185 C.3     1  ZINC001060578637    0.1800
     16 H16        -8.9624   -0.5520   60.5809 H       1  ZINC001060578637    0.1000
     17 C17       -10.7162    0.6980   60.6287 C.3     1  ZINC001060578637   -0.1600
     18 N18        -8.8512    0.7652   62.2093 N.am    1  ZINC001060578637   -0.7000
     19 C19        -9.0617   -0.1635   63.1632 C.2     1  ZINC001060578637    0.6100
     20 O20        -9.5538   -1.2360   62.8696 O.2     1  ZINC001060578637   -0.5300
     21 C21        -8.6953    0.1211   64.5628 C.2     1  ZINC001060578637    0.1200
     22 N22        -8.9255   -0.6490   65.6047 N.2     1  ZINC001060578637   -0.2400
     23 N23        -8.4679   -0.0831   66.6648 N.2     1  ZINC001060578637   -0.2900
     24 C24        -7.9252    1.0698   66.3578 C.2     1  ZINC001060578637    0.1900
     25 N25        -8.0448    1.2358   65.0257 N.pl3   1  ZINC001060578637   -0.5500
     26 C26        -8.0200    2.6348   60.3656 C.ar    1  ZINC001060578637   -0.1100
     27 C27        -7.3198    3.4815   59.5269 C.ar    1  ZINC001060578637   -0.0900
     28 H28         0.1593    2.9262   59.8586 H       1  ZINC001060578637    0.0600
     29 H29        -0.3449    1.9325   58.4707 H       1  ZINC001060578637    0.0500
     30 H30         0.1208    3.6329   58.2254 H       1  ZINC001060578637    0.0600
     31 H31        -2.2965    2.6796   59.8264 H       1  ZINC001060578637    0.0800
     32 H32        -1.8405    4.3741   59.5282 H       1  ZINC001060578637    0.0800
     33 H33        -1.9685    4.8852   54.9113 H       1  ZINC001060578637    0.0900
     34 H34        -2.4770    3.1905   55.1061 H       1  ZINC001060578637    0.0500
     35 H35        -3.5395    4.5076   55.6582 H       1  ZINC001060578637    0.0400
     36 H36        -4.7400    2.9398   56.3642 H       1  ZINC001060578637    0.4000
     37 H37        -6.2565    5.0230   57.7504 H       1  ZINC001060578637    0.0800
     38 H38        -6.8064    4.0817   56.3434 H       1  ZINC001060578637    0.0800
     39 H39        -7.2856    1.5771   56.7430 H       1  ZINC001060578637    0.1300
     40 H40        -8.5274    0.0661   58.2390 H       1  ZINC001060578637    0.1300
     41 H41       -10.9674    1.7317   60.8662 H       1  ZINC001060578637    0.0600
     42 H42       -10.9859    0.4871   59.5938 H       1  ZINC001060578637    0.0700
     43 H43       -11.2660    0.0292   61.2909 H       1  ZINC001060578637    0.0700
     44 H44        -8.4598    1.6211   62.4438 H       1  ZINC001060578637    0.4100
     45 H45        -7.4623    1.7602   67.0473 H       1  ZINC001060578637    0.2300
     46 H46        -7.7382    1.9924   64.5019 H       1  ZINC001060578637    0.4400
     47 H47        -8.2262    2.9318   61.3833 H       1  ZINC001060578637    0.1300
     48 H48        -6.9812    4.4413   59.8884 H       1  ZINC001060578637    0.1300
@<TRIPOS>BOND
     1     1     2    1
     2     1    28    1
     3     1    29    1
     4     1    30    1
     5     2     3    1
     6     2    31    1
     7     2    32    1
     8     3     4    1
     9     3     5    1
    10     3     7    1
    11     5     6    1
    12     6    33    1
    13     6    34    1
    14     6    35    1
    15     7     8    2
    16     7     9   am
    17     9    10    1
    18     9    36    1
    19    10    11    1
    20    10    37    1
    21    10    38    1
    22    11    27   ar
    23    11    12   ar
    24    12    13   ar
    25    12    39    1
    26    13    14   ar
    27    13    40    1
    28    14    15    1
    29    14    26   ar
    30    15    16    1
    31    15    17    1
    32    15    18    1
    33    17    41    1
    34    17    42    1
    35    17    43    1
    36    18    19   am
    37    18    44    1
    38    19    20    2
    39    19    21    1
    40    21    25    1
    41    21    22    2
    42    22    23    1
    43    23    24    2
    44    24    25    1
    45    24    45    1
    46    25    46    1
    47    26    27   ar
    48    26    47    1
    49    27    48    1
@<TRIPOS>SUBSTRUCTURE
     1 ZINC001060578637        1 TEMP              0 ****  ****    0 ROOT


##########                                Name:     oleObject14.pdb
##########                DOCK_Rotatable_Bonds:                   9
##########                         Heavy_Atoms:                  33
##########                    Molecular_Weight:             484.424
##########                DOCK_Rotatable_Bonds:                   9
##########                       Formal_Charge:         0.000299782
##########                     HBond_Acceptors:                   7
##########                        HBond_Donors:                   1
##########                         Heavy_Atoms:                  33
##########                          Grid_Score:          -36.806934
##########                     Grid_vdw_energy:          -36.431580
##########                      Grid_es_energy:           -0.375353
##########           Internal_energy_repulsive:           10.892383

@<TRIPOS>MOLECULE
oleObject14.pdb
 60 63 1 0 0
SMALL
NO_CHARGES


@<TRIPOS>ATOM
      1 C           1.4582   -0.3992   49.8186 C.ar    1  UNL         0.0422
      2 C           0.8275    0.8344   49.5925 C.ar    1  UNL        -0.0408
      3 C           1.0234    1.8996   50.4873 C.ar    1  UNL        -0.0288
      4 C           1.8540    1.7348   51.6165 C.ar    1  UNL         0.0937
      5 C           2.4837    0.4925   51.8356 C.ar    1  UNL         0.0723
      6 C           2.2859   -0.5708   50.9391 C.ar    1  UNL        -0.0221
      7 CL          3.5240    0.2446   53.2257 Cl      1  UNL        -0.0814
      8 O           2.0727    2.7568   52.5203 O.3     1  UNL        -0.3432
      9 C           1.1278    3.8117   52.7730 C.3     1  UNL         0.0661
     10 C          -0.2170    3.1579   53.1527 C.3     1  UNL         0.0222
     11 N          -1.3347    4.1228   53.2505 N.4     1  UNL        -0.3010
     12 C          -1.6827    4.7830   51.9705 C.3     1  UNL        -0.0010
     13 C          -2.7763    5.8585   52.1556 C.3     1  UNL        -0.0289
     14 C          -4.0425    5.3133   52.8594 C.3     1  UNL         0.0382
     15 C          -3.6465    4.5458   54.1460 C.3     1  UNL        -0.0289
     16 C          -2.5069    3.5236   53.9246 C.3     1  UNL        -0.0010
     17 C          -4.9039    4.4528   51.9023 C.2     1  UNL         0.2156
     18 O          -4.4848    4.0752   50.8233 O.2     1  UNL        -0.2774
     19 N          -6.1765    4.0527   52.2892 N.am    1  UNL        -0.3025
     20 C          -7.1368    3.2380   51.5212 C.3     1  UNL         0.0900
     21 C          -7.9201    2.2599   52.3947 C.ar    1  UNL        -0.0217
     22 C          -9.1968    1.8015   52.0115 C.ar    1  UNL        -0.0568
     23 C          -9.9081    0.9109   52.8320 C.ar    1  UNL        -0.0619
     24 C          -9.3478    0.4683   54.0405 C.ar    1  UNL        -0.0622
     25 C          -8.0744    0.9152   54.4263 C.ar    1  UNL        -0.0619
     26 C          -7.3633    1.8058   53.6055 C.ar    1  UNL        -0.0568
     27 C          -8.0850    4.1078   50.7012 C.ar    1  UNL         0.0652
     28 C          -9.1274    4.8411   51.3050 C.ar    1  UNL        -0.0383
     29 C          -9.9728    5.6167   50.4957 C.ar    1  UNL        -0.0588
     30 C          -9.7476    5.6313   49.1105 C.ar    1  UNL        -0.0438
     31 C          -8.6869    4.8695   48.5911 C.ar    1  UNL         0.0272
     32 N          -7.8741    4.1239   49.3668 N.ar    1  UNL        -0.2590
     33 CL          1.2121   -1.7245   48.7016 Cl      1  UNL        -0.0843
     34 H           0.1873    0.9665   48.7248 H       1  UNL         0.0639
     35 H           0.5263    2.8443   50.2926 H       1  UNL         0.0652
     36 H           2.7736   -1.5258   51.1131 H       1  UNL         0.0655
     37 H           1.0084    4.4302   51.8754 H       1  UNL         0.0586
     38 H           1.4741    4.4415   53.6025 H       1  UNL         0.0586
     39 H          -0.0833    2.6626   54.1234 H       1  UNL         0.0455
     40 H          -0.4580    2.3799   52.4165 H       1  UNL         0.0455
     41 H          -2.0312    4.0319   51.2495 H       1  UNL         0.0431
     42 H          -0.8028    5.2732   51.5382 H       1  UNL         0.0431
     43 H          -3.0379    6.2889   51.1819 H       1  UNL         0.0288
     44 H          -2.3612    6.6770   52.7578 H       1  UNL         0.0288
     45 H          -4.6286    6.1747   53.1908 H       1  UNL         0.0402
     46 H          -4.5246    4.0399   54.5674 H       1  UNL         0.0288
     47 H          -3.3134    5.2723   54.8985 H       1  UNL         0.0288
     48 H          -2.8831    2.6818   53.3297 H       1  UNL         0.0431
     49 H          -2.2078    3.1224   54.9017 H       1  UNL         0.0431
     50 H          -6.4305    4.2711   53.2442 H       1  UNL         0.1504
     51 H          -6.5497    2.6551   50.8001 H       1  UNL         0.0624
     52 H          -9.6446    2.1412   51.0822 H       1  UNL         0.0626
     53 H         -10.8932    0.5653   52.5316 H       1  UNL         0.0623
     54 H          -9.8978   -0.2210   54.6750 H       1  UNL         0.0623
     55 H          -7.6378    0.5708   55.3595 H       1  UNL         0.0623
     56 H          -6.3774    2.1443   53.9121 H       1  UNL         0.0626
     57 H          -9.2800    4.8106   52.3796 H       1  UNL         0.0643
     58 H         -10.7838    6.1925   50.9322 H       1  UNL         0.0624
     59 H         -10.3806    6.2191   48.4522 H       1  UNL         0.0639
     60 H          -8.4817    4.8553   47.5214 H       1  UNL         0.0840
@<TRIPOS>BOND
     1     1     2   ar
     2     1     6   ar
     3     1    33    1
     4     2     3   ar
     5     2    34    1
     6     3     4   ar
     7     3    35    1
     8     4     5   ar
     9     4     8    1
    10     5     6   ar
    11     5     7    1
    12     6    36    1
    13     8     9    1
    14     9    10    1
    15     9    37    1
    16     9    38    1
    17    10    11    1
    18    10    39    1
    19    10    40    1
    20    11    12    1
    21    11    16    1
    22    12    13    1
    23    12    41    1
    24    12    42    1
    25    13    14    1
    26    13    43    1
    27    13    44    1
    28    14    15    1
    29    14    17    1
    30    14    45    1
    31    15    16    1
    32    15    46    1
    33    15    47    1
    34    16    48    1
    35    16    49    1
    36    17    18    2
    37    17    19   am
    38    19    20    1
    39    19    50    1
    40    20    21    1
    41    20    27    1
    42    20    51    1
    43    21    22   ar
    44    21    26   ar
    45    22    23   ar
    46    22    52    1
    47    23    24   ar
    48    23    53    1
    49    24    25   ar
    50    24    54    1
    51    25    26   ar
    52    25    55    1
    53    26    56    1
    54    27    28   ar
    55    27    32   ar
    56    28    29   ar
    57    28    57    1
    58    29    30   ar
    59    29    58    1
    60    30    31   ar
    61    30    59    1
    62    31    32   ar
    63    31    60    1
@<TRIPOS>SUBSTRUCTURE
     1 UNL         1 TEMP              0 ****  ****    0 ROOT


##########                                Name:    ZINC000062291520
##########                DOCK_Rotatable_Bonds:                  10
##########                         Heavy_Atoms:                  29
##########                    Molecular_Weight:             398.502
##########                DOCK_Rotatable_Bonds:                  10
##########                       Formal_Charge:          -0.0100006
##########                     HBond_Acceptors:                   6
##########                        HBond_Donors:                   1
##########                         Heavy_Atoms:                  29
##########                          Grid_Score:          -36.218128
##########                     Grid_vdw_energy:          -35.253273
##########                      Grid_es_energy:           -0.964856
##########           Internal_energy_repulsive:           16.939434

@<TRIPOS>MOLECULE
ZINC000062291520
 59 61 1 0 0
SMALL
USER_CHARGES


@<TRIPOS>ATOM
      1 C1         -6.0143    2.7976   52.8840 C.3     1  ZINC000062291520    0.0300
      2 O2         -7.3624    2.3551   52.7135 O.3     1  ZINC000062291520   -0.3100
      3 C3         -8.1053    2.9894   51.7674 C.ar    1  ZINC000062291520    0.1000
      4 C4         -7.5333    3.9774   50.9829 C.ar    1  ZINC000062291520   -0.1700
      5 C5         -8.2918    4.6253   50.0251 C.ar    1  ZINC000062291520   -0.1200
      6 C6         -9.6192    4.2854   49.8441 C.ar    1  ZINC000062291520   -0.1200
      7 C7        -10.1945    3.2956   50.6196 C.ar    1  ZINC000062291520   -0.1700
      8 C8         -9.4404    2.6427   51.5809 C.ar    1  ZINC000062291520    0.1000
      9 O9        -10.0048    1.6689   52.3443 O.3     1  ZINC000062291520   -0.3100
     10 C10        -9.3570    0.3952   52.3544 C.3     1  ZINC000062291520    0.0700
     11 C11       -10.4111   -0.7127   52.4022 C.3     1  ZINC000062291520   -0.1400
     12 C12       -10.9881   -0.7975   53.7918 C.2     1  ZINC000062291520    0.5200
     13 O13       -12.1168   -0.4079   54.0045 O.2     1  ZINC000062291520   -0.5400
     14 N14       -10.2497   -1.3060   54.7981 N.am    1  ZINC000062291520   -0.7200
     15 C15       -10.8113   -1.3900   56.1486 C.3     1  ZINC000062291520    0.1600
     16 C16        -9.9315   -0.6289   57.1067 C.ar    1  ZINC000062291520   -0.1100
     17 C17        -9.3669    0.5722   56.7210 C.ar    1  ZINC000062291520   -0.1000
     18 C18        -8.5602    1.2707   57.6002 C.ar    1  ZINC000062291520   -0.1200
     19 C19        -8.3183    0.7678   58.8647 C.ar    1  ZINC000062291520   -0.0900
     20 C20        -8.8828   -0.4340   59.2503 C.ar    1  ZINC000062291520   -0.0800
     21 C21        -8.6188   -0.9825   60.6288 C.3     1  ZINC000062291520    0.0900
     22 N22        -8.7768    0.0893   61.6209 N.3     1  ZINC000062291520   -0.5300
     23 C23       -10.1556    0.5995   61.6300 C.3     1  ZINC000062291520    0.0100
     24 C24       -10.2608    1.7518   62.6326 C.3     1  ZINC000062291520    0.0600
     25 O25        -9.8441    1.2947   63.9220 O.3     1  ZINC000062291520   -0.3800
     26 C26        -8.5057    0.7915   63.9496 C.3     1  ZINC000062291520    0.0900
     27 H27        -7.8128    1.5846   63.6685 H       1  ZINC000062291520    0.0700
     28 C28        -8.1739    0.2995   65.3598 C.3     1  ZINC000062291520   -0.1500
     29 C29        -8.3826   -0.3705   62.9605 C.3     1  ZINC000062291520    0.0200
     30 C30        -9.6939   -1.1294   58.3734 C.ar    1  ZINC000062291520   -0.0900
     31 H31        -5.4689    2.6695   51.9490 H       1  ZINC000062291520    0.0500
     32 H32        -6.0103    3.8505   53.1658 H       1  ZINC000062291520    0.0600
     33 H33        -5.5353    2.2100   53.6674 H       1  ZINC000062291520    0.1000
     34 H34        -6.4964    4.2450   51.1224 H       1  ZINC000062291520    0.1400
     35 H35        -7.8459    5.3984   49.4170 H       1  ZINC000062291520    0.1300
     36 H36       -10.2082    4.7936   49.0951 H       1  ZINC000062291520    0.1300
     37 H37       -11.2318    3.0313   50.4758 H       1  ZINC000062291520    0.1400
     38 H38        -8.7130    0.3221   53.2307 H       1  ZINC000062291520    0.0700
     39 H39        -8.7559    0.2861   51.4516 H       1  ZINC000062291520    0.0700
     40 H40        -9.9493   -1.6651   52.1418 H       1  ZINC000062291520    0.1100
     41 H41       -11.2066   -0.4883   51.6916 H       1  ZINC000062291520    0.1100
     42 H42        -9.3466   -1.6164   54.6282 H       1  ZINC000062291520    0.4000
     43 H43       -11.8122   -0.9586   56.1534 H       1  ZINC000062291520    0.0800
     44 H44       -10.8644   -2.4345   56.4557 H       1  ZINC000062291520    0.0800
     45 H45        -9.5562    0.9653   55.7331 H       1  ZINC000062291520    0.1200
     46 H46        -8.1193    2.2095   57.2989 H       1  ZINC000062291520    0.1300
     47 H47        -7.6882    1.3135   59.5514 H       1  ZINC000062291520    0.1200
     48 H48        -9.3268   -1.7831   60.8429 H       1  ZINC000062291520    0.0500
     49 H49        -7.6026   -1.3740   60.6756 H       1  ZINC000062291520    0.0900
     50 H50       -10.4176    0.9581   60.6346 H       1  ZINC000062291520    0.0900
     51 H51       -10.8375   -0.1997   61.9202 H       1  ZINC000062291520    0.0400
     52 H52        -9.6190    2.5726   62.3124 H       1  ZINC000062291520    0.0600
     53 H53       -11.2939    2.0957   62.6847 H       1  ZINC000062291520    0.1000
     54 H54        -8.8661   -0.4946   65.6398 H       1  ZINC000062291520    0.0600
     55 H55        -7.1538   -0.0839   65.3802 H       1  ZINC000062291520    0.0700
     56 H56        -8.2655    1.1263   66.0641 H       1  ZINC000062291520    0.0700
     57 H57        -9.0361   -1.1850   63.2727 H       1  ZINC000062291520    0.0400
     58 H58        -7.3505   -0.7200   62.9362 H       1  ZINC000062291520    0.0900
     59 H59       -10.1387   -2.0657   58.6763 H       1  ZINC000062291520    0.1200
@<TRIPOS>BOND
     1     1     2    1
     2     1    31    1
     3     1    32    1
     4     1    33    1
     5     2     3    1
     6     3     8   ar
     7     3     4   ar
     8     4     5   ar
     9     4    34    1
    10     5     6   ar
    11     5    35    1
    12     6     7   ar
    13     6    36    1
    14     7     8   ar
    15     7    37    1
    16     8     9    1
    17     9    10    1
    18    10    11    1
    19    10    38    1
    20    10    39    1
    21    11    12    1
    22    11    40    1
    23    11    41    1
    24    12    13    2
    25    12    14   am
    26    14    15    1
    27    14    42    1
    28    15    16    1
    29    15    43    1
    30    15    44    1
    31    16    30   ar
    32    16    17   ar
    33    17    18   ar
    34    17    45    1
    35    18    19   ar
    36    18    46    1
    37    19    20   ar
    38    19    47    1
    39    20    21    1
    40    20    30   ar
    41    21    22    1
    42    21    48    1
    43    21    49    1
    44    22    29    1
    45    22    23    1
    46    23    24    1
    47    23    50    1
    48    23    51    1
    49    24    25    1
    50    24    52    1
    51    24    53    1
    52    25    26    1
    53    26    27    1
    54    26    28    1
    55    26    29    1
    56    28    54    1
    57    28    55    1
    58    28    56    1
    59    29    57    1
    60    29    58    1
    61    30    59    1
@<TRIPOS>SUBSTRUCTURE
     1 ZINC000062291520        1 TEMP              0 ****  ****    0 ROOT


##########                                Name:    ZINC000770814339
##########                DOCK_Rotatable_Bonds:                  13
##########                         Heavy_Atoms:                  28
##########                    Molecular_Weight:             409.423
##########                DOCK_Rotatable_Bonds:                  13
##########                       Formal_Charge:          -0.0100008
##########                     HBond_Acceptors:                  12
##########                        HBond_Donors:                   4
##########                         Heavy_Atoms:                  28
##########                          Grid_Score:          -35.945255
##########                     Grid_vdw_energy:          -33.650833
##########                      Grid_es_energy:           -2.294422
##########           Internal_energy_repulsive:            9.084788

@<TRIPOS>MOLECULE
ZINC000770814339
 47 48 1 0 0
SMALL
USER_CHARGES


@<TRIPOS>ATOM
      1 C1         -7.2929    3.7832   50.5245 C.3     1  ZINC000770814339   -0.1500
      2 C2         -5.7877    4.0579   50.5160 C.3     1  ZINC000770814339    0.0600
      3 O3         -5.2420    3.8039   51.8374 O.3     1  ZINC000770814339   -0.3500
      4 C4         -3.9567    4.1336   52.0396 C.2     1  ZINC000770814339    0.4700
      5 O5         -3.2706    4.4880   51.1105 O.2     1  ZINC000770814339   -0.4800
      6 C6         -3.3694    4.0617   53.4257 C.3     1  ZINC000770814339    0.0700
      7 O7         -1.9783    3.7470   53.3378 O.3     1  ZINC000770814339   -0.1800
      8 N8         -1.2870    3.8439   54.5698 N.2     1  ZINC000770814339   -0.2800
      9 C9          0.0099    3.7208   54.6005 C.2     1  ZINC000770814339    0.1800
     10 C10         0.7611    3.4775   53.3463 C.2     1  ZINC000770814339    0.5900
     11 O11         0.5378    4.1555   52.3631 O.2     1  ZINC000770814339   -0.5100
     12 N12         1.6919    2.5041   53.2964 N.am    1  ZINC000770814339   -0.7000
     13 C13         2.4357    2.2647   52.0571 C.3     1  ZINC000770814339    0.1500
     14 C14         1.6890    1.2689   51.2075 C.ar    1  ZINC000770814339   -0.0600
     15 C15         0.9157    1.7062   50.1484 C.ar    1  ZINC000770814339   -0.1200
     16 C16         0.2309    0.7927   49.3690 C.ar    1  ZINC000770814339   -0.0200
     17 C17         0.3197   -0.5582   49.6484 C.ar    1  ZINC000770814339   -0.6700
     18 S18        -0.5537   -1.7225   48.6553 S.o2    1  ZINC000770814339    2.7000
     19 N19        -1.7442   -2.3781   49.6014 N.am    1  ZINC000770814339   -1.2500
     20 O20        -1.2123   -0.9728   47.6437 O.2     1  ZINC000770814339   -0.9600
     21 O21         0.3595   -2.7741   48.3733 O.2     1  ZINC000770814339   -0.9600
     22 C22         1.0941   -0.9957   50.7066 C.ar    1  ZINC000770814339   -0.0200
     23 C23         1.7821   -0.0824   51.4836 C.ar    1  ZINC000770814339   -0.1200
     24 C24         0.7310    3.8234   55.8848 C.2     1  ZINC000770814339    0.0600
     25 C25         0.1670    4.0176   57.1273 C.2     1  ZINC000770814339   -0.2000
     26 C26         1.2015    4.0530   58.0610 C.2     1  ZINC000770814339    0.0400
     27 N27         2.3389    3.8904   57.4336 N.2     1  ZINC000770814339   -0.2600
     28 N28         2.0808    3.7380   56.0657 N.pl3   1  ZINC000770814339   -0.4400
     29 H29        -7.7026    3.9739   49.5325 H       1  ZINC000770814339    0.0800
     30 H30        -7.4709    2.7431   50.7974 H       1  ZINC000770814339    0.0700
     31 H31        -7.7775    4.4371   51.2495 H       1  ZINC000770814339    0.0700
     32 H32        -5.3031    3.4040   49.7910 H       1  ZINC000770814339    0.0700
     33 H33        -5.6097    5.0980   50.2432 H       1  ZINC000770814339    0.0700
     34 H34        -3.4937    5.0235   53.9232 H       1  ZINC000770814339    0.1100
     35 H35        -3.8815    3.2880   53.9976 H       1  ZINC000770814339    0.1100
     36 H36         1.8694    1.9620   54.0809 H       1  ZINC000770814339    0.4100
     37 H37         2.5417    3.2016   51.5103 H       1  ZINC000770814339    0.0900
     38 H38         3.4231    1.8699   52.2965 H       1  ZINC000770814339    0.0900
     39 H39         0.8463    2.7617   49.9302 H       1  ZINC000770814339    0.1400
     40 H40        -0.3739    1.1346   48.5421 H       1  ZINC000770814339    0.1500
     41 H41        -1.5111   -2.8554   50.4130 H       1  ZINC000770814339    0.4200
     42 H42        -2.6748   -2.2848   49.3439 H       1  ZINC000770814339    0.4200
     43 H43         1.1639   -2.0511   50.9247 H       1  ZINC000770814339    0.1500
     44 H44         2.3871   -0.4242   52.3104 H       1  ZINC000770814339    0.1400
     45 H45        -0.8867    4.1236   57.3394 H       1  ZINC000770814339    0.1700
     46 H46         1.0842    4.1920   59.1256 H       1  ZINC000770814339    0.1900
     47 H47         2.7434    3.6019   55.3704 H       1  ZINC000770814339    0.4500
@<TRIPOS>BOND
     1     1     2    1
     2     1    29    1
     3     1    30    1
     4     1    31    1
     5     2     3    1
     6     2    32    1
     7     2    33    1
     8     3     4    1
     9     4     5    2
    10     4     6    1
    11     6     7    1
    12     6    34    1
    13     6    35    1
    14     7     8    1
    15     8     9    2
    16     9    10    1
    17     9    24    1
    18    10    11    2
    19    10    12   am
    20    12    13    1
    21    12    36    1
    22    13    14    1
    23    13    37    1
    24    13    38    1
    25    14    23   ar
    26    14    15   ar
    27    15    16   ar
    28    15    39    1
    29    16    17   ar
    30    16    40    1
    31    17    18    1
    32    17    22   ar
    33    18    19   am
    34    18    20    2
    35    18    21    2
    36    19    41    1
    37    19    42    1
    38    22    23   ar
    39    22    43    1
    40    23    44    1
    41    24    28    1
    42    24    25    2
    43    25    26    1
    44    25    45    1
    45    26    27    2
    46    26    46    1
    47    27    28    1
    48    28    47    1
@<TRIPOS>SUBSTRUCTURE
     1 ZINC000770814339        1 TEMP              0 ****  ****    0 ROOT


##########                                Name:    ZINC001513543414
##########                DOCK_Rotatable_Bonds:                   6
##########                         Heavy_Atoms:                  26
##########                    Molecular_Weight:             364.488
##########                DOCK_Rotatable_Bonds:                   6
##########                       Formal_Charge:         -0.00999974
##########                     HBond_Acceptors:                   7
##########                        HBond_Donors:                   0
##########                         Heavy_Atoms:                  26
##########                          Grid_Score:          -35.516308
##########                     Grid_vdw_energy:          -35.782078
##########                      Grid_es_energy:            0.265771
##########           Internal_energy_repulsive:           16.681532

@<TRIPOS>MOLECULE
ZINC001513543414
 58 61 1 0 0
SMALL
USER_CHARGES


@<TRIPOS>ATOM
      1 C1        -14.7293   -2.5029   59.7391 C.3     1  ZINC001513543414   -0.1500
      2 C2        -15.0964   -3.6428   58.7869 C.3     1  ZINC001513543414   -0.1200
      3 C3        -14.1258   -3.6523   57.6044 C.3     1  ZINC001513543414    0.1100
      4 C4        -14.2397   -4.9787   56.8503 C.3     1  ZINC001513543414   -0.1500
      5 C5        -14.4461   -2.4785   56.6544 C.3     1  ZINC001513543414   -0.1500
      6 C6        -13.0300   -1.9976   56.2354 C.3     1  ZINC001513543414   -0.1500
      7 C7        -12.2323   -2.2627   57.5370 C.3     1  ZINC001513543414    0.0700
      8 H8        -12.3694   -1.4401   58.2389 H       1  ZINC001513543414    0.0800
      9 C9        -10.7468   -2.4481   57.2210 C.3     1  ZINC001513543414    0.1100
     10 N10       -10.0827   -1.1424   57.2125 N.pl3   1  ZINC001513543414   -0.4600
     11 C11        -9.8254   -0.3542   56.1251 C.2     1  ZINC001513543414    0.1900
     12 C12       -10.1747   -0.6666   54.6929 C.3     1  ZINC001513543414    0.1800
     13 H13       -10.7507   -1.5902   54.6374 H       1  ZINC001513543414    0.1000
     14 C14       -10.9736    0.5040   54.0665 C.3     1  ZINC001513543414   -0.1500
     15 C15       -10.6601    0.3015   52.5589 C.3     1  ZINC001513543414   -0.1500
     16 C16        -9.2116   -0.2317   52.5943 C.3     1  ZINC001513543414    0.0500
     17 O17        -8.9812   -0.7750   53.9010 O.3     1  ZINC001513543414   -0.3500
     18 N18        -9.2231    0.7174   56.5571 N.2     1  ZINC001513543414   -0.2600
     19 N19        -9.0834    0.6604   57.8334 N.2     1  ZINC001513543414   -0.3100
     20 C20        -9.5978   -0.4576   58.2887 C.2     1  ZINC001513543414    0.3400
     21 N21        -9.6341   -0.8693   59.6114 N.3     1  ZINC001513543414   -0.4500
     22 C22       -10.6445   -0.1074   60.3758 C.3     1  ZINC001513543414    0.0500
     23 C23       -10.0492    0.0208   61.8001 C.3     1  ZINC001513543414   -0.1500
     24 C24        -8.5404    0.2106   61.4932 C.3     1  ZINC001513543414    0.0700
     25 H25        -8.3233    1.2521   61.2559 H       1  ZINC001513543414    0.0800
     26 O26        -7.7415   -0.2325   62.5922 O.3     1  ZINC001513543414   -0.3800
     27 C27        -8.1276    0.3210   63.8517 C.3     1  ZINC001513543414    0.0300
     28 C28        -8.3213   -0.6876   60.2575 C.3     1  ZINC001513543414    0.0600
     29 O29       -12.7846   -3.4747   58.0752 O.3     1  ZINC001513543414   -0.3600
     30 H30       -15.4208   -2.4962   60.5816 H       1  ZINC001513543414    0.0500
     31 H31       -13.7127   -2.6481   60.1047 H       1  ZINC001513543414    0.0500
     32 H32       -14.7926   -1.5524   59.2094 H       1  ZINC001513543414    0.0600
     33 H33       -15.0331   -4.5934   59.3166 H       1  ZINC001513543414    0.0700
     34 H34       -16.1130   -3.4977   58.4214 H       1  ZINC001513543414    0.0600
     35 H35       -15.2547   -5.0948   56.4706 H       1  ZINC001513543414    0.0700
     36 H36       -13.5371   -4.9844   56.0169 H       1  ZINC001513543414    0.0600
     37 H37       -14.0082   -5.8019   57.5261 H       1  ZINC001513543414    0.0700
     38 H38       -15.0106   -2.8233   55.7881 H       1  ZINC001513543414    0.0900
     39 H39       -14.9838   -1.6894   57.1803 H       1  ZINC001513543414    0.0800
     40 H40       -12.6418   -2.5925   55.4086 H       1  ZINC001513543414    0.0800
     41 H41       -13.0333   -0.9365   55.9858 H       1  ZINC001513543414    0.0900
     42 H42       -10.2903   -3.0830   57.9803 H       1  ZINC001513543414    0.1000
     43 H43       -10.6392   -2.9169   56.2428 H       1  ZINC001513543414    0.1100
     44 H44       -12.0408    0.4009   54.2632 H       1  ZINC001513543414    0.0900
     45 H45       -10.6022    1.4662   54.4192 H       1  ZINC001513543414    0.0900
     46 H46       -11.3334   -0.4336   52.1180 H       1  ZINC001513543414    0.0800
     47 H47       -10.7119    1.2483   52.0214 H       1  ZINC001513543414    0.0900
     48 H48        -9.0865   -1.0119   51.8436 H       1  ZINC001513543414    0.0700
     49 H49        -8.5131    0.5829   52.4028 H       1  ZINC001513543414    0.0700
     50 H50       -10.7895    0.8789   59.9350 H       1  ZINC001513543414    0.0600
     51 H51       -11.5878   -0.6527   60.4065 H       1  ZINC001513543414    0.0900
     52 H52       -10.4551    0.8909   62.3162 H       1  ZINC001513543414    0.0800
     53 H53       -10.2188   -0.8880   62.3775 H       1  ZINC001513543414    0.0900
     54 H54        -7.4734   -0.0643   64.6339 H       1  ZINC001513543414    0.0900
     55 H55        -8.0456    1.4072   63.8117 H       1  ZINC001513543414    0.0400
     56 H56        -9.1585    0.0424   64.0704 H       1  ZINC001513543414    0.0400
     57 H57        -7.9235   -1.6540   60.5674 H       1  ZINC001513543414    0.1000
     58 H58        -7.6312   -0.2045   59.5658 H       1  ZINC001513543414    0.0900
@<TRIPOS>BOND
     1     1     2    1
     2     1    30    1
     3     1    31    1
     4     1    32    1
     5     2     3    1
     6     2    33    1
     7     2    34    1
     8     3    29    1
     9     3     4    1
    10     3     5    1
    11     4    35    1
    12     4    36    1
    13     4    37    1
    14     5     6    1
    15     5    38    1
    16     5    39    1
    17     6     7    1
    18     6    40    1
    19     6    41    1
    20     7     8    1
    21     7     9    1
    22     7    29    1
    23     9    10    1
    24     9    42    1
    25     9    43    1
    26    10    20    1
    27    10    11    1
    28    11    12    1
    29    11    18    2
    30    12    13    1
    31    12    17    1
    32    12    14    1
    33    14    15    1
    34    14    44    1
    35    14    45    1
    36    15    16    1
    37    15    46    1
    38    15    47    1
    39    16    17    1
    40    16    48    1
    41    16    49    1
    42    18    19    1
    43    19    20    2
    44    20    21    1
    45    21    28    1
    46    21    22    1
    47    22    23    1
    48    22    50    1
    49    22    51    1
    50    23    24    1
    51    23    52    1
    52    23    53    1
    53    24    25    1
    54    24    26    1
    55    24    28    1
    56    26    27    1
    57    27    54    1
    58    27    55    1
    59    27    56    1
    60    28    57    1
    61    28    58    1
@<TRIPOS>SUBSTRUCTURE
     1 ZINC001513543414        1 TEMP              0 ****  ****    0 ROOT


##########                                Name:    ZINC000770850676
##########                DOCK_Rotatable_Bonds:                  13
##########                         Heavy_Atoms:                  30
##########                    Molecular_Weight:             412.486
##########                DOCK_Rotatable_Bonds:                  13
##########                       Formal_Charge:          -0.0299994
##########                     HBond_Acceptors:                   7
##########                        HBond_Donors:                   3
##########                         Heavy_Atoms:                  30
##########                          Grid_Score:          -35.151947
##########                     Grid_vdw_energy:          -32.817398
##########                      Grid_es_energy:           -2.334547
##########           Internal_energy_repulsive:           11.848359

@<TRIPOS>MOLECULE
ZINC000770850676
 58 60 1 0 0
SMALL
USER_CHARGES


@<TRIPOS>ATOM
      1 O1        -10.7152    0.7653   56.4654 O.2     1  ZINC000770850676   -0.5300
      2 C2        -10.3264   -0.3691   56.2839 C.2     1  ZINC000770850676    0.5100
      3 N3         -9.5100   -0.6439   55.2474 N.am    1  ZINC000770850676   -0.7000
      4 C4         -9.0970    0.4264   54.3364 C.3     1  ZINC000770850676    0.1600
      5 H5         -9.7565    1.2851   54.4620 H       1  ZINC000770850676    0.1000
      6 C6         -9.1791   -0.0728   52.8925 C.3     1  ZINC000770850676    0.0600
      7 O7         -8.3631   -1.2363   52.7436 O.3     1  ZINC000770850676   -0.5700
      8 C8         -7.6578    0.8383   54.6525 C.3     1  ZINC000770850676   -0.1500
      9 C9         -7.5835    2.3593   54.8006 C.3     1  ZINC000770850676    0.1500
     10 H10        -8.5213    2.7303   55.2140 H       1  ZINC000770850676    0.1100
     11 O11        -6.5082    2.7006   55.6777 O.3     1  ZINC000770850676   -0.5400
     12 C12        -7.3476    2.9846   53.4499 C.ar    1  ZINC000770850676   -0.1200
     13 C13        -8.4047    3.5333   52.7481 C.ar    1  ZINC000770850676   -0.1100
     14 C14        -8.1884    4.1069   51.5092 C.ar    1  ZINC000770850676   -0.1200
     15 C15        -6.9149    4.1323   50.9721 C.ar    1  ZINC000770850676   -0.1200
     16 C16        -5.8576    3.5844   51.6743 C.ar    1  ZINC000770850676   -0.1200
     17 C17        -6.0732    3.0146   52.9151 C.ar    1  ZINC000770850676   -0.1100
     18 C18       -10.7512   -1.4702   57.2211 C.3     1  ZINC000770850676    0.1400
     19 H19       -10.0680   -2.3151   57.1339 H       1  ZINC000770850676    0.1000
     20 C20       -12.1884   -1.9206   56.8843 C.3     1  ZINC000770850676   -0.1200
     21 C21       -12.8086   -2.1781   58.2831 C.3     1  ZINC000770850676   -0.1300
     22 C22       -12.1365   -1.0689   59.1302 C.3     1  ZINC000770850676    0.1000
     23 N23       -10.7588   -0.9738   58.6049 N.am    1  ZINC000770850676   -0.5900
     24 C24        -9.6904   -0.5081   59.2818 C.2     1  ZINC000770850676    0.6700
     25 O25        -8.5998   -0.4747   58.7471 O.2     1  ZINC000770850676   -0.5600
     26 O26        -9.8316   -0.0800   60.5504 O.3     1  ZINC000770850676   -0.3600
     27 C27        -8.9184   -0.6289   61.5368 C.3     1  ZINC000770850676    0.1300
     28 C28        -9.2429   -0.0593   62.8937 C.ar    1  ZINC000770850676   -0.1000
     29 C29        -8.2420    0.1008   63.8335 C.ar    1  ZINC000770850676   -0.0900
     30 C30        -8.5397    0.6234   65.0782 C.ar    1  ZINC000770850676   -0.1200
     31 C31        -9.8383    0.9862   65.3829 C.ar    1  ZINC000770850676   -0.1100
     32 C32       -10.8391    0.8269   64.4427 C.ar    1  ZINC000770850676   -0.1200
     33 C33       -10.5406    0.3085   63.1966 C.ar    1  ZINC000770850676   -0.0900
     34 H34        -9.1959   -1.5505   55.1045 H       1  ZINC000770850676    0.4000
     35 H35       -10.2130   -0.3207   52.6521 H       1  ZINC000770850676    0.0500
     36 H36        -8.8263    0.7072   52.2177 H       1  ZINC000770850676    0.0500
     37 H37        -7.4893   -1.1587   53.1506 H       1  ZINC000770850676    0.3800
     38 H38        -7.3410    0.3668   55.5829 H       1  ZINC000770850676    0.0800
     39 H39        -7.0023    0.5196   53.8422 H       1  ZINC000770850676    0.0900
     40 H40        -5.6376    2.4276   55.3575 H       1  ZINC000770850676    0.3700
     41 H41        -9.3997    3.5135   53.1678 H       1  ZINC000770850676    0.1200
     42 H42        -9.0144    4.5349   50.9607 H       1  ZINC000770850676    0.1200
     43 H43        -6.7460    4.5797   50.0038 H       1  ZINC000770850676    0.1200
     44 H44        -4.8628    3.6039   51.2545 H       1  ZINC000770850676    0.1200
     45 H45        -5.2472    2.5866   53.4637 H       1  ZINC000770850676    0.1200
     46 H46       -12.7280   -1.1301   56.3628 H       1  ZINC000770850676    0.0800
     47 H47       -12.1771   -2.8362   56.2930 H       1  ZINC000770850676    0.1000
     48 H48       -13.8908   -2.0505   58.2601 H       1  ZINC000770850676    0.0900
     49 H49       -12.5412   -3.1681   58.6527 H       1  ZINC000770850676    0.0800
     50 H50       -12.6600   -0.1218   58.9992 H       1  ZINC000770850676    0.0700
     51 H51       -12.1210   -1.3523   60.1826 H       1  ZINC000770850676    0.0900
     52 H52        -9.0220   -1.7137   61.5639 H       1  ZINC000770850676    0.0800
     53 H53        -7.8945   -0.3683   61.2688 H       1  ZINC000770850676    0.0800
     54 H54        -7.2274   -0.1826   63.5955 H       1  ZINC000770850676    0.1200
     55 H55        -7.7578    0.7478   65.8128 H       1  ZINC000770850676    0.1300
     56 H56       -10.0710    1.3938   66.3556 H       1  ZINC000770850676    0.1300
     57 H57       -11.8538    1.1101   64.6810 H       1  ZINC000770850676    0.1300
     58 H58       -11.3225    0.1840   62.4621 H       1  ZINC000770850676    0.1200
@<TRIPOS>BOND
     1     1     2    2
     2     2     3   am
     3     2    18    1
     4     3     4    1
     5     3    34    1
     6     4     5    1
     7     4     6    1
     8     4     8    1
     9     6     7    1
    10     6    35    1
    11     6    36    1
    12     7    37    1
    13     8     9    1
    14     8    38    1
    15     8    39    1
    16     9    10    1
    17     9    11    1
    18     9    12    1
    19    11    40    1
    20    12    17   ar
    21    12    13   ar
    22    13    14   ar
    23    13    41    1
    24    14    15   ar
    25    14    42    1
    26    15    16   ar
    27    15    43    1
    28    16    17   ar
    29    16    44    1
    30    17    45    1
    31    18    19    1
    32    18    23    1
    33    18    20    1
    34    20    21    1
    35    20    46    1
    36    20    47    1
    37    21    22    1
    38    21    48    1
    39    21    49    1
    40    22    23    1
    41    22    50    1
    42    22    51    1
    43    23    24   am
    44    24    25    2
    45    24    26    1
    46    26    27    1
    47    27    28    1
    48    27    52    1
    49    27    53    1
    50    28    33   ar
    51    28    29   ar
    52    29    30   ar
    53    29    54    1
    54    30    31   ar
    55    30    55    1
    56    31    32   ar
    57    31    56    1
    58    32    33   ar
    59    32    57    1
    60    33    58    1
@<TRIPOS>SUBSTRUCTURE
     1 ZINC000770850676        1 TEMP              0 ****  ****    0 ROOT


##########                                Name:    ZINC001573443776
##########                DOCK_Rotatable_Bonds:                   8
##########                         Heavy_Atoms:                  28
##########                    Molecular_Weight:             386.457
##########                DOCK_Rotatable_Bonds:                   8
##########                       Formal_Charge:          0.00999954
##########                     HBond_Acceptors:                  10
##########                        HBond_Donors:                   3
##########                         Heavy_Atoms:                  28
##########                          Grid_Score:          -35.124847
##########                     Grid_vdw_energy:          -33.472126
##########                      Grid_es_energy:           -1.652720
##########           Internal_energy_repulsive:           31.065418

@<TRIPOS>MOLECULE
ZINC001573443776
 54 56 1 0 0
SMALL
USER_CHARGES


@<TRIPOS>ATOM
      1 C1         -9.0153    4.7422   49.4849 C.3     1  ZINC001573443776   -0.1800
      2 C2         -7.7686    5.2476   50.1642 C.2     1  ZINC001573443776    0.5100
      3 O3         -7.1688    6.1957   49.7033 O.2     1  ZINC001573443776   -0.5400
      4 N4         -7.3203    4.6461   51.2838 N.am    1  ZINC001573443776   -0.6100
      5 C5         -6.1064    5.1274   51.9573 C.3     1  ZINC001573443776    0.1100
      6 C6         -5.1407    3.9512   52.1330 C.3     1  ZINC001573443776   -0.1300
      7 C7         -5.8565    2.8135   52.8647 C.3     1  ZINC001573443776   -0.1000
      8 C8         -7.0489    2.3390   52.0310 C.3     1  ZINC001573443776   -0.1200
      9 H9         -6.7000    2.0060   51.0535 H       1  ZINC001573443776    0.1000
     10 C10        -7.7334    1.1968   52.7368 C.2     1  ZINC001573443776    0.5200
     11 O11        -7.6153    1.0675   53.9368 O.2     1  ZINC001573443776   -0.5300
     12 N12        -8.4766    0.3190   52.0342 N.am    1  ZINC001573443776   -0.7300
     13 C13        -9.1433   -0.7903   52.7205 C.3     1  ZINC001573443776    0.1100
     14 C14       -10.4479   -0.2926   53.3461 C.3     1  ZINC001573443776    0.1400
     15 H15       -10.2795    0.6771   53.8142 H       1  ZINC001573443776    0.0900
     16 C16       -11.5153   -0.1555   52.2585 C.3     1  ZINC001573443776   -0.1700
     17 N17       -10.9013   -1.2509   54.3572 N.pl3   1  ZINC001573443776   -0.7200
     18 C18       -10.5285   -1.0877   55.6854 C.ar    1  ZINC001573443776    0.4300
     19 C19       -10.8200   -2.0877   56.6087 C.ar    1  ZINC001573443776   -0.2500
     20 C20       -10.4456   -1.9179   57.9272 C.ar    1  ZINC001573443776    0.0100
     21 C21        -9.7834   -0.7385   58.2843 C.ar    1  ZINC001573443776   -0.1400
     22 C22        -9.3601   -0.5090   59.6883 C.2     1  ZINC001573443776    0.2400
     23 N23        -8.1616   -0.7226   60.1943 N.2     1  ZINC001573443776   -0.3000
     24 N24        -8.1973   -0.4012   61.4417 N.pl3   1  ZINC001573443776   -0.2300
     25 N25        -9.3799    0.0093   61.7423 N.2     1  ZINC001573443776   -0.0500
     26 N26       -10.1204   -0.0385   60.6873 N.2     1  ZINC001573443776   -0.2700
     27 C27        -9.5265    0.2165   57.3052 C.ar    1  ZINC001573443776    0.2300
     28 C28        -8.8140    1.4916   57.6760 C.3     1  ZINC001573443776   -0.1200
     29 N29        -9.8955    0.0153   56.0561 N.ar    1  ZINC001573443776   -0.5400
     30 C30        -8.0394    3.5005   51.8575 C.3     1  ZINC001573443776    0.1200
     31 H31        -8.7406    4.0442   48.6941 H       1  ZINC001573443776    0.0900
     32 H32        -9.6463    4.2347   50.2144 H       1  ZINC001573443776    0.0800
     33 H33        -9.5606    5.5823   49.0548 H       1  ZINC001573443776    0.1000
     34 H34        -5.6342    5.9004   51.3511 H       1  ZINC001573443776    0.1000
     35 H35        -6.3675    5.5347   52.9341 H       1  ZINC001573443776    0.0700
     36 H36        -4.8097    3.6030   51.1545 H       1  ZINC001573443776    0.0700
     37 H37        -4.2778    4.2729   52.7162 H       1  ZINC001573443776    0.0800
     38 H38        -5.1642    1.9847   53.0128 H       1  ZINC001573443776    0.0800
     39 H39        -6.2088    3.1694   53.8328 H       1  ZINC001573443776    0.0700
     40 H40        -8.5700    0.4217   51.0742 H       1  ZINC001573443776    0.4000
     41 H41        -9.3627   -1.5818   52.0038 H       1  ZINC001573443776    0.0900
     42 H42        -8.4905   -1.1789   53.5022 H       1  ZINC001573443776    0.0800
     43 H43       -11.1779    0.5574   51.5062 H       1  ZINC001573443776    0.0700
     44 H44       -11.6837   -1.1254   51.7903 H       1  ZINC001573443776    0.0700
     45 H45       -12.4446    0.1991   52.7041 H       1  ZINC001573443776    0.0700
     46 H46       -11.4617   -1.9994   54.0992 H       1  ZINC001573443776    0.4100
     47 H47       -11.3331   -2.9857   56.2978 H       1  ZINC001573443776    0.1400
     48 H48       -10.6593   -2.6772   58.6648 H       1  ZINC001573443776    0.1400
     49 H49        -7.4502   -0.4596   62.0578 H       1  ZINC001573443776    0.4800
     50 H50        -7.7385    1.3520   57.5664 H       1  ZINC001573443776    0.0800
     51 H51        -9.1446    2.2966   57.0197 H       1  ZINC001573443776    0.0800
     52 H52        -9.0434    1.7485   58.7101 H       1  ZINC001573443776    0.1100
     53 H53        -8.4571    3.7726   52.8268 H       1  ZINC001573443776    0.0800
     54 H54        -8.8413    3.1993   51.1833 H       1  ZINC001573443776    0.0900
@<TRIPOS>BOND
     1     1     2    1
     2     1    31    1
     3     1    32    1
     4     1    33    1
     5     2     3    2
     6     2     4   am
     7     4    30    1
     8     4     5    1
     9     5     6    1
    10     5    34    1
    11     5    35    1
    12     6     7    1
    13     6    36    1
    14     6    37    1
    15     7     8    1
    16     7    38    1
    17     7    39    1
    18     8     9    1
    19     8    10    1
    20     8    30    1
    21    10    11    2
    22    10    12   am
    23    12    13    1
    24    12    40    1
    25    13    14    1
    26    13    41    1
    27    13    42    1
    28    14    15    1
    29    14    16    1
    30    14    17    1
    31    16    43    1
    32    16    44    1
    33    16    45    1
    34    17    18    1
    35    17    46    1
    36    18    29   ar
    37    18    19   ar
    38    19    20   ar
    39    19    47    1
    40    20    21   ar
    41    20    48    1
    42    21    22    1
    43    21    27   ar
    44    22    26    1
    45    22    23    2
    46    23    24    1
    47    24    25    1
    48    24    49    1
    49    25    26    2
    50    27    28    1
    51    27    29   ar
    52    28    50    1
    53    28    51    1
    54    28    52    1
    55    30    53    1
    56    30    54    1
@<TRIPOS>SUBSTRUCTURE
     1 ZINC001573443776        1 TEMP              0 ****  ****    0 ROOT


##########                                Name:    ZINC000546142192
##########                DOCK_Rotatable_Bonds:                  12
##########                         Heavy_Atoms:                  31
##########                    Molecular_Weight:             420.511
##########                DOCK_Rotatable_Bonds:                  12
##########                       Formal_Charge:          -0.0599997
##########                     HBond_Acceptors:                   7
##########                        HBond_Donors:                   2
##########                         Heavy_Atoms:                  31
##########                          Grid_Score:          -35.098152
##########                     Grid_vdw_energy:          -31.855042
##########                      Grid_es_energy:           -3.243110
##########           Internal_energy_repulsive:           13.355102

@<TRIPOS>MOLECULE
ZINC000546142192
 59 61 1 0 0
SMALL
USER_CHARGES


@<TRIPOS>ATOM
      1 C1         -7.6633    0.2681   64.9245 C.3     1  ZINC000546142192    0.0300
      2 O2         -7.8844   -0.1071   63.5393 O.3     1  ZINC000546142192   -0.3600
      3 C3         -9.0783    0.1996   63.0079 C.2     1  ZINC000546142192    0.4600
      4 O4         -9.9547    0.6469   63.7093 O.2     1  ZINC000546142192   -0.5100
      5 C5         -9.3255   -0.0138   61.5368 C.3     1  ZINC000546142192   -0.0800
      6 H6         -8.4041   -0.3448   61.0578 H       1  ZINC000546142192    0.1100
      7 C7        -10.4081   -1.0789   61.3508 C.3     1  ZINC000546142192   -0.1500
      8 C8         -9.7874    1.2993   60.9016 C.3     1  ZINC000546142192   -0.0600
      9 C9         -8.8917    1.6365   59.7374 C.ar    1  ZINC000546142192   -0.1000
     10 C10        -7.8883    2.5759   59.8884 C.ar    1  ZINC000546142192   -0.0900
     11 C11        -7.0655    2.8868   58.8235 C.ar    1  ZINC000546142192   -0.1200
     12 C12        -7.2466    2.2548   57.6004 C.ar    1  ZINC000546142192    0.1600
     13 N13        -6.4143    2.5672   56.5196 N.am    1  ZINC000546142192   -0.6900
     14 C14        -6.6496    3.6726   55.7854 C.2     1  ZINC000546142192    0.7100
     15 O15        -7.5850    4.3984   56.0621 O.2     1  ZINC000546142192   -0.5700
     16 N16        -5.8481    3.9735   54.7445 N.am    1  ZINC000546142192   -0.7400
     17 C17        -6.1049    5.1743   53.9455 C.3     1  ZINC000546142192    0.2300
     18 C18        -5.8496    4.8738   52.4909 C.2     1  ZINC000546142192    0.1800
     19 N19        -6.7252    4.9741   51.5286 N.2     1  ZINC000546142192   -0.4700
     20 C20        -6.1486    4.6281   50.3680 C.2     1  ZINC000546142192   -0.0300
     21 C21        -4.8669    4.3009   50.6208 C.2     1  ZINC000546142192   -0.0400
     22 N22        -4.6752    4.4618   51.9666 N.pl3   1  ZINC000546142192   -0.4500
     23 C23        -3.4309    4.2231   52.7021 C.3     1  ZINC000546142192    0.1100
     24 C24        -2.2370    4.5721   51.8113 C.3     1  ZINC000546142192   -0.0900
     25 C25        -0.9593    4.1790   52.5069 C.ar    1  ZINC000546142192   -0.0900
     26 C26         0.0567    3.5700   51.7942 C.ar    1  ZINC000546142192   -0.1100
     27 C27         1.2287    3.2095   52.4324 C.ar    1  ZINC000546142192   -0.1200
     28 C28         1.3849    3.4583   53.7832 C.ar    1  ZINC000546142192   -0.1200
     29 C29         0.3693    4.0680   54.4957 C.ar    1  ZINC000546142192   -0.1200
     30 C30        -0.8010    4.4325   53.8566 C.ar    1  ZINC000546142192   -0.1100
     31 C31        -8.2551    1.3117   57.4521 C.ar    1  ZINC000546142192   -0.1500
     32 C32        -9.0712    1.0015   58.5222 C.ar    1  ZINC000546142192   -0.0900
     33 H33        -8.4009   -0.2258   65.5568 H       1  ZINC000546142192    0.0600
     34 H34        -6.6619   -0.0368   65.2281 H       1  ZINC000546142192    0.1000
     35 H35        -7.7611    1.3487   65.0281 H       1  ZINC000546142192    0.0600
     36 H36       -11.3295   -0.7479   61.8297 H       1  ZINC000546142192    0.0600
     37 H37       -10.5869   -1.2331   60.2867 H       1  ZINC000546142192    0.0800
     38 H38       -10.0791   -2.0143   61.8033 H       1  ZINC000546142192    0.0700
     39 H39       -10.8138    1.1920   60.5510 H       1  ZINC000546142192    0.0800
     40 H40        -9.7377    2.0981   61.6415 H       1  ZINC000546142192    0.0800
     41 H41        -7.7482    3.0674   60.8398 H       1  ZINC000546142192    0.1300
     42 H42        -6.2823    3.6209   58.9420 H       1  ZINC000546142192    0.1400
     43 H43        -5.6681    1.9880   56.2988 H       1  ZINC000546142192    0.4100
     44 H44        -5.1011    3.3952   54.5246 H       1  ZINC000546142192    0.4000
     45 H45        -7.1422    5.4826   54.0760 H       1  ZINC000546142192    0.0800
     46 H46        -5.4434    5.9766   54.2723 H       1  ZINC000546142192    0.1000
     47 H47        -6.6281    4.6143   49.4004 H       1  ZINC000546142192    0.1700
     48 H48        -4.1307    3.9779   49.8998 H       1  ZINC000546142192    0.1800
     49 H49        -3.4119    4.8467   53.5960 H       1  ZINC000546142192    0.1000
     50 H50        -3.3747    3.1734   52.9902 H       1  ZINC000546142192    0.0900
     51 H51        -2.3178    4.0327   50.8675 H       1  ZINC000546142192    0.0800
     52 H52        -2.2298    5.6447   51.6171 H       1  ZINC000546142192    0.0800
     53 H53        -0.0654    3.3756   50.7389 H       1  ZINC000546142192    0.1200
     54 H54         2.0221    2.7331   51.8756 H       1  ZINC000546142192    0.1200
     55 H55         2.3003    3.1759   54.2819 H       1  ZINC000546142192    0.1200
     56 H56         0.4913    4.2621   55.5510 H       1  ZINC000546142192    0.1200
     57 H57        -1.5945    4.9089   54.4132 H       1  ZINC000546142192    0.1200
     58 H58        -8.3985    0.8184   56.5020 H       1  ZINC000546142192    0.1300
     59 H59        -9.8556    0.2678   58.4076 H       1  ZINC000546142192    0.1300
@<TRIPOS>BOND
     1     1     2    1
     2     1    33    1
     3     1    34    1
     4     1    35    1
     5     2     3    1
     6     3     4    2
     7     3     5    1
     8     5     6    1
     9     5     7    1
    10     5     8    1
    11     7    36    1
    12     7    37    1
    13     7    38    1
    14     8     9    1
    15     8    39    1
    16     8    40    1
    17     9    32   ar
    18     9    10   ar
    19    10    11   ar
    20    10    41    1
    21    11    12   ar
    22    11    42    1
    23    12    13    1
    24    12    31   ar
    25    13    14   am
    26    13    43    1
    27    14    15    2
    28    14    16   am
    29    16    17    1
    30    16    44    1
    31    17    18    1
    32    17    45    1
    33    17    46    1
    34    18    22    1
    35    18    19    2
    36    19    20    1
    37    20    21    2
    38    20    47    1
    39    21    22    1
    40    21    48    1
    41    22    23    1
    42    23    24    1
    43    23    49    1
    44    23    50    1
    45    24    25    1
    46    24    51    1
    47    24    52    1
    48    25    30   ar
    49    25    26   ar
    50    26    27   ar
    51    26    53    1
    52    27    28   ar
    53    27    54    1
    54    28    29   ar
    55    28    55    1
    56    29    30   ar
    57    29    56    1
    58    30    57    1
    59    31    32   ar
    60    31    58    1
    61    32    59    1
@<TRIPOS>SUBSTRUCTURE
     1 ZINC000546142192        1 TEMP              0 ****  ****    0 ROOT


##########                                Name:    ZINC000547864253
##########                DOCK_Rotatable_Bonds:                   6
##########                         Heavy_Atoms:                  30
##########                    Molecular_Weight:             422.548
##########                DOCK_Rotatable_Bonds:                   6
##########                       Formal_Charge:           0.0300002
##########                     HBond_Acceptors:                   6
##########                        HBond_Donors:                   2
##########                         Heavy_Atoms:                  30
##########                          Grid_Score:          -35.040535
##########                     Grid_vdw_energy:          -31.809019
##########                      Grid_es_energy:           -3.231515
##########           Internal_energy_repulsive:           19.918638

@<TRIPOS>MOLECULE
ZINC000547864253
 56 60 1 0 0
SMALL
USER_CHARGES


@<TRIPOS>ATOM
      1 O1        -12.3255    1.7689   61.4755 O.2     1  ZINC000547864253   -0.5300
      2 C2        -11.1888    2.1912   61.4931 C.2     1  ZINC000547864253    0.5400
      3 N3        -10.4138    2.0863   60.3954 N.am    1  ZINC000547864253   -0.7200
      4 C4        -10.9425    1.4566   59.1830 C.3     1  ZINC000547864253    0.1300
      5 C5        -10.2836    0.0893   58.9895 C.3     1  ZINC000547864253    0.0200
      6 H6         -9.3270    0.0699   59.5117 H       1  ZINC000547864253    0.0900
      7 C7        -11.1819   -0.9846   59.5468 C.2     1  ZINC000547864253   -0.1600
      8 C8        -10.8552   -1.8956   60.4770 C.2     1  ZINC000547864253    0.0600
      9 N9        -11.9272   -2.7067   60.7325 N.pl3   1  ZINC000547864253   -0.5900
     10 C10       -12.9973   -2.3278   59.9531 C.ar    1  ZINC000547864253    0.1000
     11 C11       -14.2983   -2.8005   59.8176 C.ar    1  ZINC000547864253   -0.1300
     12 C12       -15.1576   -2.1936   58.9277 C.ar    1  ZINC000547864253   -0.1000
     13 C13       -14.7386   -1.1135   58.1637 C.ar    1  ZINC000547864253   -0.1400
     14 C14       -13.4647   -0.6327   58.2810 C.ar    1  ZINC000547864253   -0.0700
     15 C15       -12.5793   -1.2284   59.1809 C.ar    1  ZINC000547864253   -0.1000
     16 C16       -10.0588   -0.1565   57.5198 C.ar    1  ZINC000547864253   -0.0700
     17 C17        -9.4810    0.8242   56.7355 C.ar    1  ZINC000547864253   -0.1100
     18 C18        -9.2748    0.5987   55.3873 C.ar    1  ZINC000547864253   -0.1200
     19 C19        -9.6459   -0.6077   54.8236 C.ar    1  ZINC000547864253   -0.1200
     20 C20       -10.2228   -1.5888   55.6082 C.ar    1  ZINC000547864253   -0.1100
     21 C21       -10.4251   -1.3649   56.9572 C.ar    1  ZINC000547864253   -0.1200
     22 C22       -10.6449    2.8390   62.7404 C.3     1  ZINC000547864253   -0.1700
     23 H23       -11.2476    3.6496   63.1502 H       1  ZINC000547864253    0.1400
     24 C24        -9.1251    2.9527   62.8720 C.3     1  ZINC000547864253   -0.1300
     25 C25        -9.8945    1.9453   63.7315 C.3     1  ZINC000547864253   -0.1400
     26 C26       -10.0483    2.2627   65.2194 C.3     1  ZINC000547864253   -0.0700
     27 C27        -8.7739    1.8640   65.9665 C.3     1  ZINC000547864253   -0.6000
     28 S28        -8.5015    0.0795   65.7728 S.o2    1  ZINC000547864253    2.4200
     29 O29        -7.2185   -0.2430   66.2916 O.2     1  ZINC000547864253   -0.9400
     30 O30        -9.6428   -0.6099   66.2639 O.2     1  ZINC000547864253   -0.9300
     31 C31        -8.4547   -0.0871   63.9654 C.3     1  ZINC000547864253   -0.6000
     32 C32        -9.7543    0.4647   63.3753 C.3     1  ZINC000547864253   -0.0700
     33 H33        -9.5060    2.4277   60.4083 H       1  ZINC000547864253    0.4000
     34 H34       -12.0207    1.3299   59.2800 H       1  ZINC000547864253    0.0800
     35 H35       -10.7270    2.0888   58.3216 H       1  ZINC000547864253    0.0700
     36 H36        -9.8891   -1.9767   60.9529 H       1  ZINC000547864253    0.1700
     37 H37       -11.9326   -3.4395   61.3680 H       1  ZINC000547864253    0.4200
     38 H38       -14.6337   -3.6408   60.4074 H       1  ZINC000547864253    0.1200
     39 H39       -16.1673   -2.5624   58.8236 H       1  ZINC000547864253    0.1300
     40 H40       -15.4247   -0.6493   57.4706 H       1  ZINC000547864253    0.1200
     41 H41       -13.1457    0.2082   57.6831 H       1  ZINC000547864253    0.1200
     42 H42        -9.1912    1.7668   57.1759 H       1  ZINC000547864253    0.1200
     43 H43        -8.8241    1.3653   54.7743 H       1  ZINC000547864253    0.1200
     44 H44        -9.4854   -0.7837   53.7702 H       1  ZINC000547864253    0.1200
     45 H45       -10.5130   -2.5313   55.1677 H       1  ZINC000547864253    0.1200
     46 H46       -10.8757   -2.1314   57.5701 H       1  ZINC000547864253    0.1200
     47 H47        -8.5184    2.5589   62.0564 H       1  ZINC000547864253    0.1100
     48 H48        -8.7278    3.8379   63.3686 H       1  ZINC000547864253    0.1100
     49 H49       -10.2238    3.3310   65.3462 H       1  ZINC000547864253    0.0900
     50 H50       -10.8944    1.7066   65.6233 H       1  ZINC000547864253    0.0900
     51 H51        -7.9246    2.4088   65.5542 H       1  ZINC000547864253    0.1400
     52 H52        -8.8820    2.1031   67.0245 H       1  ZINC000547864253    0.1400
     53 H53        -7.6080    0.4740   63.5698 H       1  ZINC000547864253    0.1400
     54 H54        -8.3516   -1.1391   63.6992 H       1  ZINC000547864253    0.1400
     55 H55       -10.6008   -0.0881   63.7826 H       1  ZINC000547864253    0.0900
     56 H56        -9.7365    0.3525   62.2912 H       1  ZINC000547864253    0.0900
@<TRIPOS>BOND
     1     1     2    2
     2     2     3   am
     3     2    22    1
     4     3     4    1
     5     3    33    1
     6     4     5    1
     7     4    34    1
     8     4    35    1
     9     5     6    1
    10     5     7    1
    11     5    16    1
    12     7    15    1
    13     7     8    2
    14     8     9    1
    15     8    36    1
    16     9    10    1
    17     9    37    1
    18    10    15   ar
    19    10    11   ar
    20    11    12   ar
    21    11    38    1
    22    12    13   ar
    23    12    39    1
    24    13    14   ar
    25    13    40    1
    26    14    15   ar
    27    14    41    1
    28    16    21   ar
    29    16    17   ar
    30    17    18   ar
    31    17    42    1
    32    18    19   ar
    33    18    43    1
    34    19    20   ar
    35    19    44    1
    36    20    21   ar
    37    20    45    1
    38    21    46    1
    39    22    23    1
    40    22    25    1
    41    22    24    1
    42    24    25    1
    43    24    47    1
    44    24    48    1
    45    25    32    1
    46    25    26    1
    47    26    27    1
    48    26    49    1
    49    26    50    1
    50    27    28    1
    51    27    51    1
    52    27    52    1
    53    28    29    2
    54    28    30    2
    55    28    31    1
    56    31    32    1
    57    31    53    1
    58    31    54    1
    59    32    55    1
    60    32    56    1
@<TRIPOS>SUBSTRUCTURE
     1 ZINC000547864253        1 TEMP              0 ****  ****    0 ROOT


##########                                Name:    ZINC000265786263
##########                DOCK_Rotatable_Bonds:                   7
##########                         Heavy_Atoms:                  28
##########                    Molecular_Weight:             386.451
##########                DOCK_Rotatable_Bonds:                   7
##########                       Formal_Charge:           0.0499992
##########                     HBond_Acceptors:                   8
##########                        HBond_Donors:                   2
##########                         Heavy_Atoms:                  28
##########                          Grid_Score:          -34.986755
##########                     Grid_vdw_energy:          -31.634418
##########                      Grid_es_energy:           -3.352338
##########           Internal_energy_repulsive:           22.914217

@<TRIPOS>MOLECULE
ZINC000265786263
 54 57 1 0 0
SMALL
USER_CHARGES


@<TRIPOS>ATOM
      1 C1         -7.7538    1.7644   55.7421 C.3     1  ZINC000265786263   -0.1500
      2 C2         -8.8168    1.1642   54.8197 C.3     1  ZINC000265786263    0.1600
      3 C3         -8.8999    1.9537   53.5117 C.3     1  ZINC000265786263   -0.1600
      4 C4         -7.9546    1.5467   52.3797 C.3     1  ZINC000265786263   -0.1600
      5 C5         -9.4476    1.2272   52.2817 C.3     1  ZINC000265786263   -0.1600
      6 N6         -8.5303   -0.2561   54.5542 N.am    1  ZINC000265786263   -0.7100
      7 C7         -9.5751   -0.9554   55.0328 C.2     1  ZINC000265786263    0.7100
      8 O8         -9.6607   -2.1665   54.9758 O.2     1  ZINC000265786263   -0.5400
      9 N9        -10.5097   -0.1687   55.5784 N.am    1  ZINC000265786263   -0.5600
     10 C10       -11.7529   -0.6611   56.1770 C.3     1  ZINC000265786263    0.1000
     11 C11       -11.4274   -1.5990   57.3109 C.2     1  ZINC000265786263    0.5100
     12 O12       -11.4083   -2.7966   57.1209 O.2     1  ZINC000265786263   -0.5300
     13 N13       -11.1574   -1.1067   58.5362 N.am    1  ZINC000265786263   -0.6100
     14 C14       -10.8296   -2.0037   59.6547 C.3     1  ZINC000265786263    0.1100
     15 C15        -9.5321   -1.5145   60.3069 C.3     1  ZINC000265786263    0.0400
     16 N16        -9.6732   -0.0976   60.6678 N.3     1  ZINC000265786263   -0.5300
     17 C17        -8.5180    0.3643   61.4489 C.3     1  ZINC000265786263    0.0900
     18 C18        -8.8577    0.3291   62.9167 C.ar    1  ZINC000265786263   -0.0600
     19 C19       -10.1700    0.4761   63.3256 C.ar    1  ZINC000265786263   -0.1300
     20 C20       -10.4850    0.4443   64.6718 C.ar    1  ZINC000265786263   -0.1000
     21 C21        -9.4885    0.2656   65.6113 C.ar    1  ZINC000265786263   -0.1400
     22 C22        -8.1705    0.1180   65.2035 C.ar    1  ZINC000265786263    0.1100
     23 O23        -7.1883   -0.0583   66.1260 O.3     1  ZINC000265786263   -0.5000
     24 C24        -7.8579    0.1446   63.8523 C.ar    1  ZINC000265786263   -0.1200
     25 C25        -9.8712    0.7386   59.4764 C.3     1  ZINC000265786263    0.0400
     26 C26       -11.1766    0.3421   58.7887 C.3     1  ZINC000265786263    0.1200
     27 C27       -10.1658    1.1326   55.5102 C.2     1  ZINC000265786263    0.5400
     28 O28       -10.8026    2.0806   55.9172 O.2     1  ZINC000265786263   -0.4500
     29 H29        -7.6827    1.1674   56.6513 H       1  ZINC000265786263    0.0700
     30 H30        -6.7903    1.7670   55.2328 H       1  ZINC000265786263    0.0800
     31 H31        -8.0314    2.7866   55.9995 H       1  ZINC000265786263    0.0900
     32 H32        -9.1339    3.0131   53.6162 H       1  ZINC000265786263    0.1100
     33 H33        -7.5664    2.3386   51.7391 H       1  ZINC000265786263    0.1000
     34 H34        -7.2734    0.7166   52.5666 H       1  ZINC000265786263    0.1100
     35 H35        -9.7487    0.1868   52.4041 H       1  ZINC000265786263    0.1000
     36 H36       -10.0416    1.8088   51.5767 H       1  ZINC000265786263    0.1000
     37 H37        -7.7422   -0.6168   54.1187 H       1  ZINC000265786263    0.4400
     38 H38       -12.3317    0.1809   56.5567 H       1  ZINC000265786263    0.1300
     39 H39       -12.3344   -1.1911   55.4227 H       1  ZINC000265786263    0.1300
     40 H40       -11.6367   -1.9859   60.3870 H       1  ZINC000265786263    0.0900
     41 H41       -10.6920   -3.0187   59.2818 H       1  ZINC000265786263    0.0900
     42 H42        -9.3327   -2.1003   61.2042 H       1  ZINC000265786263    0.0900
     43 H43        -8.7060   -1.6306   59.6052 H       1  ZINC000265786263    0.0400
     44 H44        -7.6658   -0.2879   61.2575 H       1  ZINC000265786263    0.0900
     45 H45        -8.2673    1.3844   61.1583 H       1  ZINC000265786263    0.0500
     46 H46       -10.9507    0.6162   62.5925 H       1  ZINC000265786263    0.1200
     47 H47       -11.5110    0.5595   64.9886 H       1  ZINC000265786263    0.1300
     48 H48        -9.7350    0.2412   66.6626 H       1  ZINC000265786263    0.1300
     49 H49        -6.3039   -0.1508   65.7461 H       1  ZINC000265786263    0.3900
     50 H50        -6.8328    0.0299   63.5324 H       1  ZINC000265786263    0.1300
     51 H51        -9.9178    1.7869   59.7714 H       1  ZINC000265786263    0.1000
     52 H52        -9.0405    0.5911   58.7864 H       1  ZINC000265786263    0.0400
     53 H53       -11.2709    0.8787   57.8446 H       1  ZINC000265786263    0.1000
     54 H54       -12.0197    0.5837   59.4361 H       1  ZINC000265786263    0.0800
@<TRIPOS>BOND
     1     1     2    1
     2     1    29    1
     3     1    30    1
     4     1    31    1
     5     2    27    1
     6     2     3    1
     7     2     6    1
     8     3     5    1
     9     3     4    1
    10     3    32    1
    11     4     5    1
    12     4    33    1
    13     4    34    1
    14     5    35    1
    15     5    36    1
    16     6     7   am
    17     6    37    1
    18     7     8    2
    19     7     9   am
    20     9    10    1
    21     9    27   am
    22    10    11    1
    23    10    38    1
    24    10    39    1
    25    11    12    2
    26    11    13   am
    27    13    26    1
    28    13    14    1
    29    14    15    1
    30    14    40    1
    31    14    41    1
    32    15    16    1
    33    15    42    1
    34    15    43    1
    35    16    17    1
    36    16    25    1
    37    17    18    1
    38    17    44    1
    39    17    45    1
    40    18    24   ar
    41    18    19   ar
    42    19    20   ar
    43    19    46    1
    44    20    21   ar
    45    20    47    1
    46    21    22   ar
    47    21    48    1
    48    22    23    1
    49    22    24   ar
    50    23    49    1
    51    24    50    1
    52    25    26    1
    53    25    51    1
    54    25    52    1
    55    26    53    1
    56    26    54    1
    57    27    28    2
@<TRIPOS>SUBSTRUCTURE
     1 ZINC000265786263        1 TEMP              0 ****  ****    0 ROOT


##########                                Name:    ZINC000552360217
##########                DOCK_Rotatable_Bonds:                  13
##########                         Heavy_Atoms:                  27
##########                    Molecular_Weight:             401.484
##########                DOCK_Rotatable_Bonds:                  13
##########                       Formal_Charge:          -0.0100002
##########                     HBond_Acceptors:                  10
##########                        HBond_Donors:                   3
##########                         Heavy_Atoms:                  27
##########                          Grid_Score:          -34.956558
##########                     Grid_vdw_energy:          -33.803978
##########                      Grid_es_energy:           -1.152580
##########           Internal_energy_repulsive:           17.306391

@<TRIPOS>MOLECULE
ZINC000552360217
 54 54 1 0 0
SMALL
USER_CHARGES


@<TRIPOS>ATOM
      1 C1        -10.1661    1.6498   60.4009 C.3     1  ZINC000552360217    0.0800
      2 N2         -9.3952    0.4625   60.7782 N.am    1  ZINC000552360217   -1.0000
      3 C3         -9.1921    0.1402   62.1928 C.3     1  ZINC000552360217    0.0900
      4 S4         -8.7535   -0.5152   59.6058 S.o2    1  ZINC000552360217    2.7000
      5 O5         -7.9902    0.3278   58.7538 O.2     1  ZINC000552360217   -0.9500
      6 O6         -8.2066   -1.6416   60.2776 O.2     1  ZINC000552360217   -0.9500
      7 C7        -10.0961   -1.1175   58.6367 C.ar    1  ZINC000552360217   -0.6900
      8 C8        -11.0562   -1.9281   59.2156 C.ar    1  ZINC000552360217    0.0100
      9 C9        -12.1140   -2.4050   58.4616 C.ar    1  ZINC000552360217   -0.1400
     10 C10       -12.2176   -2.0745   57.1264 C.ar    1  ZINC000552360217   -0.0300
     11 C11       -11.2523   -1.2569   56.5361 C.ar    1  ZINC000552360217   -0.1600
     12 C12       -11.3572   -0.8983   55.1057 C.2     1  ZINC000552360217    0.5600
     13 O13       -12.4365   -0.9348   54.5475 O.2     1  ZINC000552360217   -0.5300
     14 N14       -10.2564   -0.5310   54.4205 N.am    1  ZINC000552360217   -0.7100
     15 C15       -10.3606   -0.1739   53.0035 C.3     1  ZINC000552360217    0.1000
     16 C16        -9.0125    0.2696   52.4967 C.2     1  ZINC000552360217    0.5100
     17 O17        -8.1091   -0.5330   52.3943 O.2     1  ZINC000552360217   -0.5400
     18 N18        -8.8106    1.5583   52.1574 N.am    1  ZINC000552360217   -0.7200
     19 C19        -7.5005    1.9891   51.6632 C.3     1  ZINC000552360217    0.1400
     20 C20        -7.5997    3.4229   51.1385 C.3     1  ZINC000552360217    0.1000
     21 C21        -7.6059    4.3980   52.3175 C.3     1  ZINC000552360217   -0.1800
     22 C22        -6.3998    3.7203   50.2370 C.3     1  ZINC000552360217   -0.1800
     23 O23        -8.8073    3.5736   50.3895 O.3     1  ZINC000552360217   -0.3700
     24 C24        -9.0609    4.9122   49.9586 C.3     1  ZINC000552360217    0.0600
     25 C25        -9.3808    4.9146   48.4625 C.3     1  ZINC000552360217    0.0800
     26 O26        -8.1760    4.7264   47.7175 O.3     1  ZINC000552360217   -0.5700
     27 C27       -10.1908   -0.7751   57.3034 C.ar    1  ZINC000552360217    0.0400
     28 H28        -9.4960    2.5048   60.3112 H       1  ZINC000552360217    0.0600
     29 H29       -10.6601    1.4737   59.4453 H       1  ZINC000552360217    0.0900
     30 H30       -10.9158    1.8543   61.1652 H       1  ZINC000552360217    0.0800
     31 H31        -9.6838    0.8914   62.8109 H       1  ZINC000552360217    0.0800
     32 H32        -9.6166   -0.8407   62.4066 H       1  ZINC000552360217    0.0700
     33 H33        -8.1247    0.1301   62.4135 H       1  ZINC000552360217    0.0600
     34 H34       -10.9795   -2.1901   60.2605 H       1  ZINC000552360217    0.1500
     35 H35       -12.8599   -3.0376   58.9195 H       1  ZINC000552360217    0.1400
     36 H36       -13.0435   -2.4475   56.5390 H       1  ZINC000552360217    0.1400
     37 H37        -9.3949   -0.5030   54.8655 H       1  ZINC000552360217    0.4100
     38 H38       -10.6956   -1.0409   52.4340 H       1  ZINC000552360217    0.1000
     39 H39       -11.0783    0.6379   52.8852 H       1  ZINC000552360217    0.1000
     40 H40        -9.5328    2.2005   52.2405 H       1  ZINC000552360217    0.4100
     41 H41        -6.7746    1.9487   52.4752 H       1  ZINC000552360217    0.0800
     42 H42        -7.1811    1.3285   50.8571 H       1  ZINC000552360217    0.0900
     43 H43        -6.6848    4.2831   52.8888 H       1  ZINC000552360217    0.0700
     44 H44        -7.6766    5.4195   51.9437 H       1  ZINC000552360217    0.0700
     45 H45        -8.4607    4.1862   52.9598 H       1  ZINC000552360217    0.0700
     46 H46        -6.3954    3.0256   49.3970 H       1  ZINC000552360217    0.0600
     47 H47        -6.4705    4.7418   49.8632 H       1  ZINC000552360217    0.0700
     48 H48        -5.4788    3.6054   50.8084 H       1  ZINC000552360217    0.0700
     49 H49        -9.9079    5.3177   50.5120 H       1  ZINC000552360217    0.0600
     50 H50        -8.1792    5.5263   50.1426 H       1  ZINC000552360217    0.0700
     51 H51       -10.0766    4.1060   48.2385 H       1  ZINC000552360217    0.0600
     52 H52        -9.8320    5.8684   48.1889 H       1  ZINC000552360217    0.0500
     53 H53        -8.2966    4.7634   46.7587 H       1  ZINC000552360217    0.3800
     54 H54        -9.4407   -0.1422   56.8526 H       1  ZINC000552360217    0.1500
@<TRIPOS>BOND
     1     1     2    1
     2     1    28    1
     3     1    29    1
     4     1    30    1
     5     2     3    1
     6     2     4   am
     7     3    31    1
     8     3    32    1
     9     3    33    1
    10     4     5    2
    11     4     6    2
    12     4     7    1
    13     7    27   ar
    14     7     8   ar
    15     8     9   ar
    16     8    34    1
    17     9    10   ar
    18     9    35    1
    19    10    11   ar
    20    10    36    1
    21    11    12    1
    22    11    27   ar
    23    12    13    2
    24    12    14   am
    25    14    15    1
    26    14    37    1
    27    15    16    1
    28    15    38    1
    29    15    39    1
    30    16    17    2
    31    16    18   am
    32    18    19    1
    33    18    40    1
    34    19    20    1
    35    19    41    1
    36    19    42    1
    37    20    21    1
    38    20    22    1
    39    20    23    1
    40    21    43    1
    41    21    44    1
    42    21    45    1
    43    22    46    1
    44    22    47    1
    45    22    48    1
    46    23    24    1
    47    24    25    1
    48    24    49    1
    49    24    50    1
    50    25    26    1
    51    25    51    1
    52    25    52    1
    53    26    53    1
    54    27    54    1
@<TRIPOS>SUBSTRUCTURE
     1 ZINC000552360217        1 TEMP              0 ****  ****    0 ROOT


##########                                Name:    ZINC000008416770
##########                DOCK_Rotatable_Bonds:                  13
##########                         Heavy_Atoms:                  30
##########                    Molecular_Weight:             412.442
##########                DOCK_Rotatable_Bonds:                  13
##########                       Formal_Charge:          -0.0199998
##########                     HBond_Acceptors:                   8
##########                        HBond_Donors:                   2
##########                         Heavy_Atoms:                  30
##########                          Grid_Score:          -34.880592
##########                     Grid_vdw_energy:          -33.485107
##########                      Grid_es_energy:           -1.395486
##########           Internal_energy_repulsive:            7.771739

@<TRIPOS>MOLECULE
ZINC000008416770
 54 55 1 0 0
SMALL
USER_CHARGES


@<TRIPOS>ATOM
      1 C1          0.7549    0.5046   63.0887 C.3     1  ZINC000008416770   -0.1500
      2 C2          1.1216    1.7431   62.2686 C.3     1  ZINC000008416770    0.0600
      3 O3          0.3058    1.7877   61.0683 O.3     1  ZINC000008416770   -0.3500
      4 C4         -0.7991    2.5582   61.1079 C.2     1  ZINC000008416770    0.5100
      5 O5         -1.2330    2.9436   62.1753 O.2     1  ZINC000008416770   -0.5100
      6 C6         -1.4816    2.9335   59.8557 C.ar    1  ZINC000008416770   -0.1500
      7 C7         -2.6675    3.6727   59.8984 C.ar    1  ZINC000008416770   -0.0400
      8 C8         -3.3015    4.0216   58.7275 C.ar    1  ZINC000008416770   -0.1400
      9 C9         -2.7635    3.6396   57.5025 C.ar    1  ZINC000008416770    0.1800
     10 N10        -3.4084    3.9948   56.3187 N.am    1  ZINC000008416770   -0.6700
     11 C11        -2.9735    5.0526   55.6056 C.2     1  ZINC000008416770    0.5200
     12 O12        -2.0211    5.6953   55.9936 O.2     1  ZINC000008416770   -0.5100
     13 C13        -3.6707    5.4365   54.3259 C.3     1  ZINC000008416770   -0.1300
     14 C14        -3.1200    4.5949   53.1728 C.3     1  ZINC000008416770   -0.1000
     15 C15        -4.1492    4.5121   52.0752 C.2     1  ZINC000008416770    0.4700
     16 O16        -4.2566    5.4140   51.2783 O.2     1  ZINC000008416770   -0.5100
     17 O17        -4.9468    3.4365   51.9828 O.3     1  ZINC000008416770   -0.3300
     18 C18        -6.2528    3.6339   51.3795 C.3     1  ZINC000008416770    0.0500
     19 C19        -7.2658    2.7649   52.0791 C.2     1  ZINC000008416770    0.5100
     20 O20        -8.4473    3.0283   52.0020 O.2     1  ZINC000008416770   -0.4900
     21 N21        -6.8590    1.6948   52.7904 N.am    1  ZINC000008416770   -0.6700
     22 C22        -7.7996    0.8878   53.4400 C.ar    1  ZINC000008416770    0.1400
     23 C23        -8.4956   -0.0804   52.7282 C.ar    1  ZINC000008416770   -0.1400
     24 C24        -9.4234   -0.8754   53.3723 C.ar    1  ZINC000008416770   -0.1000
     25 C25        -9.6598   -0.7077   54.7243 C.ar    1  ZINC000008416770   -0.1000
     26 C26       -10.6732   -1.5766   55.4239 C.3     1  ZINC000008416770   -0.1200
     27 C27        -8.9681    0.2552   55.4360 C.ar    1  ZINC000008416770   -0.1000
     28 C28        -8.0350    1.0495   54.7990 C.ar    1  ZINC000008416770   -0.1200
     29 C29        -1.5831    2.9043   57.4562 C.ar    1  ZINC000008416770   -0.1600
     30 C30        -0.9410    2.5559   58.6228 C.ar    1  ZINC000008416770   -0.0300
     31 H31        -0.2981    0.5515   63.3666 H       1  ZINC000008416770    0.0700
     32 H32         0.9342   -0.3911   62.4939 H       1  ZINC000008416770    0.0700
     33 H33         1.3674    0.4710   63.9896 H       1  ZINC000008416770    0.0800
     34 H34         0.9424    2.6388   62.8633 H       1  ZINC000008416770    0.0700
     35 H35         2.1745    1.6962   61.9907 H       1  ZINC000008416770    0.0700
     36 H36        -3.0858    3.9692   60.8489 H       1  ZINC000008416770    0.1400
     37 H37        -4.2178    4.5923   58.7598 H       1  ZINC000008416770    0.1400
     38 H38        -4.1702    3.4807   56.0082 H       1  ZINC000008416770    0.4200
     39 H39        -4.7411    5.2575   54.4274 H       1  ZINC000008416770    0.1100
     40 H40        -3.4968    6.4927   54.1201 H       1  ZINC000008416770    0.1100
     41 H41        -2.2126    5.0585   52.7858 H       1  ZINC000008416770    0.1200
     42 H42        -2.8906    3.5919   53.5324 H       1  ZINC000008416770    0.1200
     43 H43        -6.5430    4.6801   51.4760 H       1  ZINC000008416770    0.1100
     44 H44        -6.2099    3.3646   50.3242 H       1  ZINC000008416770    0.1100
     45 H45        -5.9142    1.4841   52.8520 H       1  ZINC000008416770    0.4100
     46 H46        -8.3119   -0.2114   51.6720 H       1  ZINC000008416770    0.1300
     47 H47        -9.9650   -1.6285   52.8193 H       1  ZINC000008416770    0.1300
     48 H48       -10.1823   -2.4715   55.8061 H       1  ZINC000008416770    0.0700
     49 H49       -11.1163   -1.0233   56.2520 H       1  ZINC000008416770    0.0700
     50 H50       -11.4541   -1.8631   54.7194 H       1  ZINC000008416770    0.0700
     51 H51        -9.1551    0.3837   56.4920 H       1  ZINC000008416770    0.1300
     52 H52        -7.4950    1.8014   55.3555 H       1  ZINC000008416770    0.1300
     53 H53        -1.1681    2.6097   56.5036 H       1  ZINC000008416770    0.1400
     54 H54        -0.0249    1.9852   58.5862 H       1  ZINC000008416770    0.1400
@<TRIPOS>BOND
     1     1     2    1
     2     1    31    1
     3     1    32    1
     4     1    33    1
     5     2     3    1
     6     2    34    1
     7     2    35    1
     8     3     4    1
     9     4     5    2
    10     4     6    1
    11     6    30   ar
    12     6     7   ar
    13     7     8   ar
    14     7    36    1
    15     8     9   ar
    16     8    37    1
    17     9    10    1
    18     9    29   ar
    19    10    11   am
    20    10    38    1
    21    11    12    2
    22    11    13    1
    23    13    14    1
    24    13    39    1
    25    13    40    1
    26    14    15    1
    27    14    41    1
    28    14    42    1
    29    15    16    2
    30    15    17    1
    31    17    18    1
    32    18    19    1
    33    18    43    1
    34    18    44    1
    35    19    20    2
    36    19    21   am
    37    21    22    1
    38    21    45    1
    39    22    28   ar
    40    22    23   ar
    41    23    24   ar
    42    23    46    1
    43    24    25   ar
    44    24    47    1
    45    25    26    1
    46    25    27   ar
    47    26    48    1
    48    26    49    1
    49    26    50    1
    50    27    28   ar
    51    27    51    1
    52    28    52    1
    53    29    30   ar
    54    29    53    1
    55    30    54    1
@<TRIPOS>SUBSTRUCTURE
     1 ZINC000008416770        1 TEMP              0 ****  ****    0 ROOT


##########                                Name:     oleObject70.pdb
##########                DOCK_Rotatable_Bonds:                   9
##########                         Heavy_Atoms:                  35
##########                    Molecular_Weight:             504.458
##########                DOCK_Rotatable_Bonds:                   9
##########                       Formal_Charge:          0.00010002
##########                     HBond_Acceptors:                   6
##########                        HBond_Donors:                   2
##########                         Heavy_Atoms:                  35
##########                          Grid_Score:          -34.789726
##########                     Grid_vdw_energy:          -35.324673
##########                      Grid_es_energy:            0.534948
##########           Internal_energy_repulsive:           20.424191

@<TRIPOS>MOLECULE
oleObject70.pdb
 62 65 1 0 0
SMALL
NO_CHARGES


@<TRIPOS>ATOM
      1 C          -8.1373    5.3019   48.3258 C.ar    1  UNL        -0.0620
      2 C          -7.1545    6.0395   49.0011 C.ar    1  UNL        -0.0590
      3 C          -6.7492    5.6785   50.3008 C.ar    1  UNL        -0.0456
      4 C          -7.3333    4.5502   50.9313 C.ar    1  UNL        -0.0187
      5 C          -8.3323    3.8273   50.2435 C.ar    1  UNL        -0.0565
      6 C          -8.7300    4.1972   48.9503 C.ar    1  UNL        -0.0619
      7 C          -6.9157    4.1254   52.3505 C.3     1  UNL         0.0909
      8 C          -7.6409    2.8702   52.8659 C.ar    1  UNL         0.0681
      9 C          -8.4993    2.9137   53.9939 C.ar    1  UNL        -0.0272
     10 C          -9.1232    1.7212   54.4069 C.ar    1  UNL        -0.0559
     11 C          -8.8809    0.5393   53.6923 C.ar    1  UNL        -0.0435
     12 C          -8.0230    0.5885   52.5839 C.ar    1  UNL         0.0272
     13 N          -7.4222    1.7234   52.1809 N.ar    1  UNL        -0.2587
     14 C          -8.7613    4.1992   54.7706 C.3     1  UNL        -0.0379
     15 N          -5.4479    4.1130   52.5372 N.am    1  UNL        -0.2987
     16 C          -4.7572    4.4206   53.7029 C.2     1  UNL         0.2437
     17 O          -5.3199    4.7364   54.7372 O.2     1  UNL        -0.2719
     18 C          -3.2516    4.3309   53.6297 C.ar    1  UNL         0.0371
     19 C          -2.4251    4.6496   54.7308 C.ar    1  UNL        -0.0494
     20 C          -1.0275    4.5535   54.6281 C.ar    1  UNL        -0.0570
     21 C          -0.4284    4.1388   53.4272 C.ar    1  UNL        -0.0341
     22 C          -1.2425    3.8179   52.3284 C.ar    1  UNL        -0.0570
     23 C          -2.6399    3.9143   52.4290 C.ar    1  UNL        -0.0494
     24 C           1.0834    4.0291   53.3221 C.3     1  UNL         0.0208
     25 N           1.5051    2.6385   53.1114 N.4     1  UNL        -0.3086
     26 C           2.2804    2.4341   51.8807 C.3     1  UNL         0.0223
     27 C           1.7024    1.3053   51.0378 C.ar    1  UNL        -0.0154
     28 C           0.8207    1.6132   49.9840 C.ar    1  UNL        -0.0548
     29 C           0.2768    0.5920   49.1880 C.ar    1  UNL        -0.0431
     30 C           0.6133   -0.7470   49.4403 C.ar    1  UNL         0.0421
     31 C           1.4938   -1.0649   50.4861 C.ar    1  UNL        -0.0245
     32 C           2.0387   -0.0441   51.2835 C.ar    1  UNL         0.0465
     33 CL          3.1414   -0.4912   52.5726 Cl      1  UNL        -0.0839
     34 CL         -0.0632   -2.0210   48.4481 Cl      1  UNL        -0.0843
     35 C          -5.6960    6.5349   50.9971 C.3     1  UNL        -0.0394
     36 H          -8.4454    5.5922   47.3255 H       1  UNL         0.0623
     37 H          -6.7105    6.9017   48.5114 H       1  UNL         0.0626
     38 H          -8.8168    2.9773   50.7122 H       1  UNL         0.0627
     39 H          -9.5007    3.6301   48.4363 H       1  UNL         0.0623
     40 H          -7.2435    4.9355   53.0088 H       1  UNL         0.0624
     41 H          -9.7840    1.7088   55.2690 H       1  UNL         0.0627
     42 H          -9.3471   -0.3951   53.9902 H       1  UNL         0.0639
     43 H          -7.8077   -0.3063   52.0015 H       1  UNL         0.0840
     44 H          -7.8469    4.5607   55.2564 H       1  UNL         0.0280
     45 H          -9.5104    4.0486   55.5580 H       1  UNL         0.0280
     46 H          -9.1369    4.9927   54.1133 H       1  UNL         0.0280
     47 H          -4.8904    3.8618   51.7328 H       1  UNL         0.1508
     48 H          -2.8506    4.9738   55.6749 H       1  UNL         0.0631
     49 H          -0.4077    4.7986   55.4863 H       1  UNL         0.0626
     50 H          -0.7932    3.4904   51.3950 H       1  UNL         0.0626
     51 H          -3.2480    3.6599   51.5654 H       1  UNL         0.0631
     52 H           1.5374    4.4197   54.2422 H       1  UNL         0.0479
     53 H           1.4329    4.6529   52.4891 H       1  UNL         0.0479
     54 H           0.6796    2.0401   53.0882 H       1  UNL         0.1229
     55 H           3.3208    2.1972   52.1385 H       1  UNL         0.0480
     56 H           2.2955    3.3587   51.2893 H       1  UNL         0.0480
     57 H           0.5587    2.6475   49.7789 H       1  UNL         0.0627
     58 H          -0.4022    0.8393   48.3769 H       1  UNL         0.0639
     59 H           1.7555   -2.1017   50.6777 H       1  UNL         0.0654
     60 H          -5.4691    7.4435   50.4253 H       1  UNL         0.0280
     61 H          -4.7566    5.9818   51.1198 H       1  UNL         0.0280
     62 H          -6.0372    6.8549   51.9896 H       1  UNL         0.0280
@<TRIPOS>BOND
     1     1     2   ar
     2     1     6   ar
     3     1    36    1
     4     2     3   ar
     5     2    37    1
     6     3     4   ar
     7     3    35    1
     8     4     5   ar
     9     4     7    1
    10     5     6   ar
    11     5    38    1
    12     6    39    1
    13     7     8    1
    14     7    15    1
    15     7    40    1
    16     8     9   ar
    17     8    13   ar
    18     9    10   ar
    19     9    14    1
    20    10    11   ar
    21    10    41    1
    22    11    12   ar
    23    11    42    1
    24    12    13   ar
    25    12    43    1
    26    14    44    1
    27    14    45    1
    28    14    46    1
    29    15    16   am
    30    15    47    1
    31    16    17    2
    32    16    18    1
    33    18    19   ar
    34    18    23   ar
    35    19    20   ar
    36    19    48    1
    37    20    21   ar
    38    20    49    1
    39    21    22   ar
    40    21    24    1
    41    22    23   ar
    42    22    50    1
    43    23    51    1
    44    24    25    1
    45    24    52    1
    46    24    53    1
    47    25    26    1
    48    25    54    1
    49    26    27    1
    50    26    55    1
    51    26    56    1
    52    27    28   ar
    53    27    32   ar
    54    28    29   ar
    55    28    57    1
    56    29    30   ar
    57    29    58    1
    58    30    31   ar
    59    30    34    1
    60    31    32   ar
    61    31    59    1
    62    32    33    1
    63    35    60    1
    64    35    61    1
    65    35    62    1
@<TRIPOS>SUBSTRUCTURE
     1 UNL         1 TEMP              0 ****  ****    0 ROOT


##########                                Name:    ZINC000474251633
##########                DOCK_Rotatable_Bonds:                   8
##########                         Heavy_Atoms:                  28
##########                    Molecular_Weight:             416.931
##########                DOCK_Rotatable_Bonds:                   8
##########                       Formal_Charge:          0.00999953
##########                     HBond_Acceptors:                   8
##########                        HBond_Donors:                   2
##########                         Heavy_Atoms:                  28
##########                          Grid_Score:          -34.783428
##########                     Grid_vdw_energy:          -33.019958
##########                      Grid_es_energy:           -1.763468
##########           Internal_energy_repulsive:            8.255466

@<TRIPOS>MOLECULE
ZINC000474251633
 49 52 1 0 0
SMALL
USER_CHARGES


@<TRIPOS>ATOM
      1 O1        -10.7141   -3.1488   58.5448 O.2     1  ZINC000474251633   -0.5300
      2 C2        -10.3578   -2.1357   57.9812 C.2     1  ZINC000474251633    0.5100
      3 C3        -10.7916   -1.8702   56.5627 C.3     1  ZINC000474251633    0.1000
      4 N4         -9.9118   -0.8638   55.9632 N.am    1  ZINC000474251633   -0.7100
      5 C5         -9.8387   -0.7453   54.6226 C.2     1  ZINC000474251633    0.5900
      6 O6        -10.5045   -1.4731   53.9103 O.2     1  ZINC000474251633   -0.5000
      7 C7         -8.9555    0.2622   54.0218 C.2     1  ZINC000474251633   -0.2300
      8 C8         -9.3121    1.0979   53.0393 C.2     1  ZINC000474251633    0.0400
      9 Cl9       -10.9033    1.0858   52.3450 Cl      1  ZINC000474251633   -0.0100
     10 C10        -8.3124    1.9865   52.6075 C.ar    1  ZINC000474251633   -0.0900
     11 C11        -8.3807    2.9776   51.6000 C.ar    1  ZINC000474251633   -0.0600
     12 C12        -7.2985    3.7510   51.3183 C.ar    1  ZINC000474251633   -0.1200
     13 C13        -6.1072    3.5834   52.0130 C.ar    1  ZINC000474251633   -0.0800
     14 C14        -6.0095    2.6288   52.9969 C.ar    1  ZINC000474251633   -0.0900
     15 C15        -7.1091    1.8214   53.3050 C.ar    1  ZINC000474251633   -0.1200
     16 S16        -7.2899    0.5408   54.4985 S.3     1  ZINC000474251633    0.1700
     17 N17        -9.5784   -1.2447   58.6255 N.am    1  ZINC000474251633   -0.7200
     18 C18        -9.1566   -1.5028   60.0045 C.3     1  ZINC000474251633    0.2100
     19 C19        -8.9951   -0.1939   60.7338 C.2     1  ZINC000474251633    0.0500
     20 N20        -9.1762   -0.0023   62.0152 N.2     1  ZINC000474251633   -0.2700
     21 N21        -8.9267    1.3475   62.2955 N.pl3   1  ZINC000474251633   -0.3600
     22 C22        -9.0154    1.9851   63.6115 C.3     1  ZINC000474251633    0.1500
     23 C23       -10.4686    2.4207   63.8908 C.3     1  ZINC000474251633   -0.1400
     24 C24       -11.0631    1.2529   64.7167 C.3     1  ZINC000474251633   -0.1300
     25 C25        -9.8771    0.8358   65.6214 C.3     1  ZINC000474251633   -0.1200
     26 C26        -8.6393    0.9774   64.7119 C.3     1  ZINC000474251633   -0.1400
     27 C27        -8.5903    1.9564   61.1392 C.2     1  ZINC000474251633    0.0600
     28 C28        -8.6195    1.0244   60.1585 C.2     1  ZINC000474251633   -0.2600
     29 H29       -10.7334   -2.7934   55.9860 H       1  ZINC000474251633    0.1100
     30 H30       -11.8181   -1.5037   56.5592 H       1  ZINC000474251633    0.1100
     31 H31        -9.3819   -0.2828   56.5311 H       1  ZINC000474251633    0.4100
     32 H32        -9.2993    3.1206   51.0503 H       1  ZINC000474251633    0.1300
     33 H33        -7.3656    4.5032   50.5463 H       1  ZINC000474251633    0.1400
     34 H34        -5.2553    4.2047   51.7790 H       1  ZINC000474251633    0.1400
     35 H35        -5.0810    2.5019   53.5337 H       1  ZINC000474251633    0.1400
     36 H36        -9.2966   -0.4326   58.1760 H       1  ZINC000474251633    0.4100
     37 H37        -9.9104   -2.1084   60.5077 H       1  ZINC000474251633    0.0900
     38 H38        -8.2059   -2.0359   60.0000 H       1  ZINC000474251633    0.0900
     39 H39        -8.3515    2.8486   63.6532 H       1  ZINC000474251633    0.1100
     40 H40       -10.4856    3.3445   64.4692 H       1  ZINC000474251633    0.0900
     41 H41       -11.0161    2.5445   62.9564 H       1  ZINC000474251633    0.0800
     42 H42       -11.9059    1.5946   65.3175 H       1  ZINC000474251633    0.0800
     43 H43       -11.3598    0.4309   64.0653 H       1  ZINC000474251633    0.0700
     44 H44        -9.7986    1.5035   66.4793 H       1  ZINC000474251633    0.0700
     45 H45        -9.9929   -0.1970   65.9500 H       1  ZINC000474251633    0.0700
     46 H46        -8.3908    0.0140   64.2667 H       1  ZINC000474251633    0.0700
     47 H47        -7.7934    1.3522   65.2881 H       1  ZINC000474251633    0.0800
     48 H48        -8.3386    2.9998   61.0188 H       1  ZINC000474251633    0.1700
     49 H49        -8.3980    1.1929   59.1151 H       1  ZINC000474251633    0.1500
@<TRIPOS>BOND
     1     1     2    2
     2     2     3    1
     3     2    17   am
     4     3     4    1
     5     3    29    1
     6     3    30    1
     7     4     5   am
     8     4    31    1
     9     5     6    2
    10     5     7    1
    11     7    16    1
    12     7     8    2
    13     8     9    1
    14     8    10    1
    15    10    15   ar
    16    10    11   ar
    17    11    12   ar
    18    11    32    1
    19    12    13   ar
    20    12    33    1
    21    13    14   ar
    22    13    34    1
    23    14    15   ar
    24    14    35    1
    25    15    16    1
    26    17    18    1
    27    17    36    1
    28    18    19    1
    29    18    37    1
    30    18    38    1
    31    19    28    1
    32    19    20    2
    33    20    21    1
    34    21    22    1
    35    21    27    1
    36    22    26    1
    37    22    23    1
    38    22    39    1
    39    23    24    1
    40    23    40    1
    41    23    41    1
    42    24    25    1
    43    24    42    1
    44    24    43    1
    45    25    26    1
    46    25    44    1
    47    25    45    1
    48    26    46    1
    49    26    47    1
    50    27    28    2
    51    27    48    1
    52    28    49    1
@<TRIPOS>SUBSTRUCTURE
     1 ZINC000474251633        1 TEMP              0 ****  ****    0 ROOT


##########                                Name:    ZINC000428266315
##########                DOCK_Rotatable_Bonds:                  10
##########                         Heavy_Atoms:                  30
##########                    Molecular_Weight:             423.438
##########                DOCK_Rotatable_Bonds:                  10
##########                       Formal_Charge:          0.00999977
##########                     HBond_Acceptors:                  10
##########                        HBond_Donors:                   0
##########                         Heavy_Atoms:                  30
##########                          Grid_Score:          -34.724030
##########                     Grid_vdw_energy:          -33.156197
##########                      Grid_es_energy:           -1.567831
##########           Internal_energy_repulsive:            9.504613

@<TRIPOS>MOLECULE
ZINC000428266315
 54 56 1 0 0
SMALL
USER_CHARGES


@<TRIPOS>ATOM
      1 C1          0.3444    4.9806   55.6761 C.3     1  ZINC000428266315   -0.1500
      2 C2         -0.6941    4.0660   56.3288 C.3     1  ZINC000428266315    0.0600
      3 O3         -0.2022    3.6114   57.5911 O.3     1  ZINC000428266315   -0.3700
      4 C4         -1.0648    2.6826   58.2507 C.3     1  ZINC000428266315    0.1800
      5 H5         -1.2342    1.8216   57.6040 H       1  ZINC000428266315    0.0900
      6 C6         -0.4136    2.2199   59.5557 C.3     1  ZINC000428266315   -0.1700
      7 C7         -2.3817    3.3490   58.5553 C.2     1  ZINC000428266315    0.1700
      8 N8         -2.6967    3.9622   59.6567 N.2     1  ZINC000428266315   -0.3500
      9 O9         -3.8294    4.3909   59.5894 O.3     1  ZINC000428266315    0.0800
     10 C10        -4.3606    4.0827   58.4025 C.2     1  ZINC000428266315    0.1900
     11 C11        -5.7456    4.4311   57.9213 C.3     1  ZINC000428266315    0.1500
     12 N12        -6.6606    4.4964   59.0687 N.3     1  ZINC000428266315   -0.5300
     13 C13        -6.7103    5.8548   59.6257 C.3     1  ZINC000428266315    0.0200
     14 C14        -8.0033    4.0297   58.6984 C.3     1  ZINC000428266315    0.1400
     15 C15        -8.0939    2.5405   58.9109 C.2     1  ZINC000428266315   -0.2300
     16 C16        -8.3573    1.9183   60.0833 C.2     1  ZINC000428266315    0.0800
     17 N17        -8.3508    0.5884   59.8537 N.pl3   1  ZINC000428266315   -0.3700
     18 C18        -8.5910   -0.4593   60.8491 C.3     1  ZINC000428266315    0.1700
     19 C19       -10.0288   -0.9041   60.7732 C.ar    1  ZINC000428266315   -0.0800
     20 C20       -11.0029   -0.2167   61.4726 C.ar    1  ZINC000428266315   -0.1000
     21 C21       -12.3218   -0.6249   61.4030 C.ar    1  ZINC000428266315   -0.0700
     22 C22       -12.6667   -1.7202   60.6334 C.ar    1  ZINC000428266315   -0.1700
     23 C23       -14.1044   -2.1654   60.5578 C.3     1  ZINC000428266315    0.5100
     24 F24       -14.9369   -1.1302   60.9966 F       1  ZINC000428266315   -0.1700
     25 F25       -14.4228   -2.4910   59.2350 F       1  ZINC000428266315   -0.1800
     26 F26       -14.2882   -3.2883   61.3717 F       1  ZINC000428266315   -0.1800
     27 C27       -11.6927   -2.4069   59.9328 C.ar    1  ZINC000428266315   -0.0700
     28 C28       -10.3744   -1.9963   59.9994 C.ar    1  ZINC000428266315   -0.0800
     29 N29        -8.0741    0.3868   58.4953 N.2     1  ZINC000428266315   -0.2900
     30 C30        -7.9263    1.5575   57.9301 C.2     1  ZINC000428266315    0.0600
     31 N31        -3.4447    3.4234   57.7347 N.2     1  ZINC000428266315   -0.4600
     32 H32        -0.0308    5.3273   54.7132 H       1  ZINC000428266315    0.0700
     33 H33         0.5315    5.8376   56.3231 H       1  ZINC000428266315    0.0600
     34 H34         1.2723    4.4284   55.5270 H       1  ZINC000428266315    0.0600
     35 H35        -1.6220    4.6181   56.4778 H       1  ZINC000428266315    0.0500
     36 H36        -0.8812    3.2090   55.6817 H       1  ZINC000428266315    0.0500
     37 H37        -0.2441    3.0808   60.2023 H       1  ZINC000428266315    0.0700
     38 H38        -1.0715    1.5114   60.0588 H       1  ZINC000428266315    0.0700
     39 H39         0.5389    1.7378   59.3353 H       1  ZINC000428266315    0.0700
     40 H40        -5.7232    5.3982   57.4190 H       1  ZINC000428266315    0.0800
     41 H41        -6.0908    3.6675   57.2243 H       1  ZINC000428266315    0.1200
     42 H42        -7.0589    6.5487   58.8607 H       1  ZINC000428266315    0.0400
     43 H43        -7.3950    5.8750   60.4736 H       1  ZINC000428266315    0.0800
     44 H44        -5.7141    6.1487   59.9560 H       1  ZINC000428266315    0.0600
     45 H45        -8.7462    4.5311   59.3189 H       1  ZINC000428266315    0.0500
     46 H46        -8.1913    4.2592   57.6495 H       1  ZINC000428266315    0.0900
     47 H47        -8.5401    2.3996   61.0327 H       1  ZINC000428266315    0.1700
     48 H48        -7.9370   -1.3078   60.6486 H       1  ZINC000428266315    0.1000
     49 H49        -8.3838   -0.0683   61.8453 H       1  ZINC000428266315    0.1100
     50 H50       -10.7335    0.6390   62.0739 H       1  ZINC000428266315    0.1300
     51 H51       -13.0829   -0.0881   61.9500 H       1  ZINC000428266315    0.1400
     52 H52       -11.9621   -3.2624   59.3313 H       1  ZINC000428266315    0.1400
     53 H53        -9.6134   -2.5328   59.4521 H       1  ZINC000428266315    0.1400
     54 H54        -7.7054    1.7342   56.8878 H       1  ZINC000428266315    0.1800
@<TRIPOS>BOND
     1     1     2    1
     2     1    32    1
     3     1    33    1
     4     1    34    1
     5     2     3    1
     6     2    35    1
     7     2    36    1
     8     3     4    1
     9     4     5    1
    10     4     6    1
    11     4     7    1
    12     6    37    1
    13     6    38    1
    14     6    39    1
    15     7    31    1
    16     7     8    2
    17     8     9    1
    18     9    10    1
    19    10    11    1
    20    10    31    2
    21    11    12    1
    22    11    40    1
    23    11    41    1
    24    12    13    1
    25    12    14    1
    26    13    42    1
    27    13    43    1
    28    13    44    1
    29    14    15    1
    30    14    45    1
    31    14    46    1
    32    15    30    1
    33    15    16    2
    34    16    17    1
    35    16    47    1
    36    17    18    1
    37    17    29    1
    38    18    19    1
    39    18    48    1
    40    18    49    1
    41    19    28   ar
    42    19    20   ar
    43    20    21   ar
    44    20    50    1
    45    21    22   ar
    46    21    51    1
    47    22    23    1
    48    22    27   ar
    49    23    24    1
    50    23    25    1
    51    23    26    1
    52    27    28   ar
    53    27    52    1
    54    28    53    1
    55    29    30    2
    56    30    54    1
@<TRIPOS>SUBSTRUCTURE
     1 ZINC000428266315        1 TEMP              0 ****  ****    0 ROOT


##########                                Name:    ZINC000767361237
##########                DOCK_Rotatable_Bonds:                  10
##########                         Heavy_Atoms:                  30
##########                    Molecular_Weight:             409.439
##########                DOCK_Rotatable_Bonds:                  10
##########                       Formal_Charge:          -0.0300005
##########                     HBond_Acceptors:                   7
##########                        HBond_Donors:                   1
##########                         Heavy_Atoms:                  30
##########                          Grid_Score:          -34.717312
##########                     Grid_vdw_energy:          -33.488129
##########                      Grid_es_energy:           -1.229184
##########           Internal_energy_repulsive:           20.135962

@<TRIPOS>MOLECULE
ZINC000767361237
 53 55 1 0 0
SMALL
USER_CHARGES


@<TRIPOS>ATOM
      1 C1        -13.1024    2.0800   60.5728 C.3     1  ZINC000767361237   -0.1200
      2 C2        -12.3251    1.9758   61.8597 C.ar    1  ZINC000767361237   -0.0900
      3 C3        -11.2220    2.7825   62.0681 C.ar    1  ZINC000767361237   -0.1200
      4 C4        -10.5090    2.6869   63.2485 C.ar    1  ZINC000767361237   -0.1100
      5 C5        -10.8992    1.7849   64.2206 C.ar    1  ZINC000767361237   -0.0800
      6 C6        -10.1215    1.6804   65.5072 C.3     1  ZINC000767361237   -0.0800
      7 H7        -10.7712    1.9311   66.3458 H       1  ZINC000767361237    0.0900
      8 C8         -8.9400    2.6517   65.4693 C.3     1  ZINC000767361237   -0.1500
      9 C9         -9.6017    0.2512   65.6743 C.3     1  ZINC000767361237    0.1300
     10 H10       -10.4444   -0.4380   65.7288 H       1  ZINC000767361237    0.1400
     11 O11        -8.8342    0.1610   66.8763 O.3     1  ZINC000767361237   -0.5200
     12 C12        -8.7338   -0.1086   64.4960 C.2     1  ZINC000767361237    0.4300
     13 O13        -7.5318   -0.0205   64.5817 O.2     1  ZINC000767361237   -0.5000
     14 O14        -9.2962   -0.5271   63.3512 O.3     1  ZINC000767361237   -0.3300
     15 C15        -8.5918   -0.2188   62.1195 C.3     1  ZINC000767361237    0.0100
     16 C16        -9.3751   -0.7495   60.9466 C.2     1  ZINC000767361237    0.3700
     17 O17       -10.4423   -1.2854   61.1260 O.2     1  ZINC000767361237   -0.4200
     18 C18        -8.8266   -0.6114   59.5498 C.3     1  ZINC000767361237   -0.1800
     19 C19        -9.4927    0.5784   58.8556 C.3     1  ZINC000767361237    0.1200
     20 N20        -9.0683    0.6263   57.4543 N.am    1  ZINC000767361237   -0.5800
     21 C21        -8.1207    1.4516   56.9739 C.2     1  ZINC000767361237    0.5700
     22 O22        -7.4913    2.2623   57.6230 O.2     1  ZINC000767361237   -0.4600
     23 C23        -7.9733    1.2058   55.5237 C.ar    1  ZINC000767361237   -0.1400
     24 C24        -7.1735    1.7423   54.5279 C.ar    1  ZINC000767361237   -0.0400
     25 C25        -7.2877    1.2740   53.2278 C.ar    1  ZINC000767361237   -0.0900
     26 C26        -8.1931    0.2767   52.9195 C.ar    1  ZINC000767361237   -0.0900
     27 C27        -9.0001   -0.2696   53.9058 C.ar    1  ZINC000767361237   -0.0400
     28 C28        -8.8971    0.1883   55.2092 C.ar    1  ZINC000767361237   -0.1400
     29 C29        -9.5708   -0.1530   56.4797 C.2     1  ZINC000767361237    0.5700
     30 O30       -10.4348   -0.9949   56.6201 O.2     1  ZINC000767361237   -0.4600
     31 C31       -12.0031    0.9793   64.0128 C.ar    1  ZINC000767361237   -0.1100
     32 C32       -12.7184    1.0775   62.8340 C.ar    1  ZINC000767361237   -0.1200
     33 H33       -13.8905    2.8248   60.6837 H       1  ZINC000767361237    0.0700
     34 H34       -12.4321    2.3776   59.7665 H       1  ZINC000767361237    0.0700
     35 H35       -13.5470    1.1130   60.3376 H       1  ZINC000767361237    0.0700
     36 H36       -10.9172    3.4872   61.3085 H       1  ZINC000767361237    0.1200
     37 H37        -9.6467    3.3167   63.4109 H       1  ZINC000767361237    0.1200
     38 H38        -8.3776    2.5762   66.3999 H       1  ZINC000767361237    0.0800
     39 H39        -8.2904    2.4010   64.6307 H       1  ZINC000767361237    0.0700
     40 H40        -9.3104    3.6700   65.3502 H       1  ZINC000767361237    0.0600
     41 H41        -7.9470    0.5394   66.8059 H       1  ZINC000767361237    0.3900
     42 H42        -8.4821    0.8616   62.0244 H       1  ZINC000767361237    0.1100
     43 H43        -7.6062   -0.6838   62.1386 H       1  ZINC000767361237    0.1100
     44 H44        -7.7499   -0.4483   59.5968 H       1  ZINC000767361237    0.1100
     45 H45        -9.0320   -1.5220   58.9871 H       1  ZINC000767361237    0.1100
     46 H46       -10.5759    0.4671   58.9036 H       1  ZINC000767361237    0.1100
     47 H47        -9.1998    1.5015   59.3558 H       1  ZINC000767361237    0.1100
     48 H48        -6.4644    2.5221   54.7632 H       1  ZINC000767361237    0.1400
     49 H49        -6.6648    1.6918   52.4508 H       1  ZINC000767361237    0.1400
     50 H50        -8.2730   -0.0795   51.9031 H       1  ZINC000767361237    0.1400
     51 H51        -9.7057   -1.0491   53.6591 H       1  ZINC000767361237    0.1400
     52 H52       -12.3081    0.2749   64.7725 H       1  ZINC000767361237    0.1200
     53 H53       -13.5808    0.4480   62.6716 H       1  ZINC000767361237    0.1200
@<TRIPOS>BOND
     1     1     2    1
     2     1    33    1
     3     1    34    1
     4     1    35    1
     5     2    32   ar
     6     2     3   ar
     7     3     4   ar
     8     3    36    1
     9     4     5   ar
    10     4    37    1
    11     5     6    1
    12     5    31   ar
    13     6     7    1
    14     6     8    1
    15     6     9    1
    16     8    38    1
    17     8    39    1
    18     8    40    1
    19     9    10    1
    20     9    11    1
    21     9    12    1
    22    11    41    1
    23    12    13    2
    24    12    14    1
    25    14    15    1
    26    15    16    1
    27    15    42    1
    28    15    43    1
    29    16    17    2
    30    16    18    1
    31    18    19    1
    32    18    44    1
    33    18    45    1
    34    19    20    1
    35    19    46    1
    36    19    47    1
    37    20    29   am
    38    20    21   am
    39    21    22    2
    40    21    23    1
    41    23    28   ar
    42    23    24   ar
    43    24    25   ar
    44    24    48    1
    45    25    26   ar
    46    25    49    1
    47    26    27   ar
    48    26    50    1
    49    27    28   ar
    50    27    51    1
    51    28    29    1
    52    29    30    2
    53    31    32   ar
    54    31    52    1
    55    32    53    1
@<TRIPOS>SUBSTRUCTURE
     1 ZINC000767361237        1 TEMP              0 ****  ****    0 ROOT


##########                                Name:    ZINC001127302705
##########                DOCK_Rotatable_Bonds:                   9
##########                         Heavy_Atoms:                  28
##########                    Molecular_Weight:             398.892
##########                DOCK_Rotatable_Bonds:                   9
##########                       Formal_Charge:          -0.0200002
##########                     HBond_Acceptors:                   7
##########                        HBond_Donors:                   1
##########                         Heavy_Atoms:                  28
##########                          Grid_Score:          -34.676483
##########                     Grid_vdw_energy:          -33.254200
##########                      Grid_es_energy:           -1.422283
##########           Internal_energy_repulsive:           21.229290

@<TRIPOS>MOLECULE
ZINC001127302705
 51 53 1 0 0
SMALL
USER_CHARGES


@<TRIPOS>ATOM
      1 C1        -10.8428   -2.1042   58.8697 C.3     1  ZINC001127302705   -0.1500
      2 C2        -10.4362   -1.5814   60.2489 C.3     1  ZINC001127302705   -0.1400
      3 C3        -10.1335   -0.0845   60.1581 C.3     1  ZINC001127302705    0.1800
      4 C4        -11.4464    0.7009   60.1371 C.3     1  ZINC001127302705   -0.1600
      5 C5         -9.3031    0.3426   61.3701 C.3     1  ZINC001127302705    0.0700
      6 O6         -9.6951   -0.4246   62.5101 O.3     1  ZINC001127302705   -0.2800
      7 C7         -9.2254   -0.0188   63.7169 C.ar    1  ZINC001127302705    0.3400
      8 N8         -7.9559   -0.2202   64.0268 N.ar    1  ZINC001127302705   -0.5300
      9 C9         -7.4580    0.1589   65.1888 C.ar    1  ZINC001127302705    0.1400
     10 C10        -8.2519    0.7838   66.1293 C.ar    1  ZINC001127302705   -0.2000
     11 C11        -9.5907    1.0141   65.8433 C.ar    1  ZINC001127302705   -0.0300
     12 C12       -10.0820    0.6099   64.6134 C.ar    1  ZINC001127302705   -0.1100
     13 Cl13      -11.7480    0.8724   64.2020 Cl      1  ZINC001127302705   -0.0400
     14 N14        -9.3817    0.1882   58.9305 N.am    1  ZINC001127302705   -0.7100
     15 C15        -8.8612    1.4130   58.7171 C.2     1  ZINC001127302705    0.6200
     16 O16        -9.0143    2.2911   59.5439 O.2     1  ZINC001127302705   -0.5200
     17 C17        -8.1048    1.6884   57.4787 C.2     1  ZINC001127302705   -0.0200
     18 N18        -8.1047    0.9588   56.3809 N.2     1  ZINC001127302705   -0.2500
     19 N19        -7.3358    1.4892   55.4990 N.pl3   1  ZINC001127302705   -0.2800
     20 C20        -7.0972    0.9456   54.1597 C.3     1  ZINC001127302705    0.1600
     21 C21        -6.9662    2.0780   53.1741 C.ar    1  ZINC001127302705   -0.1200
     22 C22        -8.0950    2.6147   52.5838 C.ar    1  ZINC001127302705   -0.1000
     23 C23        -7.9748    3.6534   51.6797 C.ar    1  ZINC001127302705   -0.1200
     24 C24        -6.7258    4.1558   51.3661 C.ar    1  ZINC001127302705   -0.1100
     25 C25        -5.5969    3.6197   51.9571 C.ar    1  ZINC001127302705   -0.1200
     26 C26        -5.7175    2.5838   52.8645 C.ar    1  ZINC001127302705   -0.0800
     27 C27        -6.7792    2.6199   55.9840 C.2     1  ZINC001127302705   -0.0200
     28 C28        -7.2471    2.7890   57.2430 C.2     1  ZINC001127302705   -0.1800
     29 H29       -10.0280   -1.9404   58.1643 H       1  ZINC001127302705    0.0500
     30 H30       -11.0584   -3.1707   58.9344 H       1  ZINC001127302705    0.0600
     31 H31       -11.7316   -1.5740   58.5276 H       1  ZINC001127302705    0.0500
     32 H32       -11.2510   -1.7452   60.9542 H       1  ZINC001127302705    0.0900
     33 H33        -9.5474   -2.1117   60.5910 H       1  ZINC001127302705    0.0800
     34 H34       -12.0058    0.4981   61.0504 H       1  ZINC001127302705    0.0700
     35 H35       -11.2308    1.7674   60.0723 H       1  ZINC001127302705    0.0500
     36 H36       -12.0380    0.3968   59.2736 H       1  ZINC001127302705    0.0800
     37 H37        -8.2462    0.1733   61.1642 H       1  ZINC001127302705    0.0800
     38 H38        -9.4694    1.4010   61.5697 H       1  ZINC001127302705    0.0700
     39 H39        -6.4158   -0.0224   65.4067 H       1  ZINC001127302705    0.1700
     40 H40        -7.8360    1.0900   67.0779 H       1  ZINC001127302705    0.1500
     41 H41       -10.2333    1.5011   66.5618 H       1  ZINC001127302705    0.1500
     42 H42        -9.2586   -0.5127   58.2715 H       1  ZINC001127302705    0.4100
     43 H43        -6.1784    0.3593   54.1638 H       1  ZINC001127302705    0.1000
     44 H44        -7.9335    0.3084   53.8719 H       1  ZINC001127302705    0.1100
     45 H45        -9.0709    2.2223   52.8287 H       1  ZINC001127302705    0.1200
     46 H46        -8.8568    4.0723   51.2180 H       1  ZINC001127302705    0.1300
     47 H47        -6.6318    4.9669   50.6592 H       1  ZINC001127302705    0.1200
     48 H48        -4.6210    4.0119   51.7118 H       1  ZINC001127302705    0.1300
     49 H49        -4.8356    2.1650   53.3261 H       1  ZINC001127302705    0.1300
     50 H50        -6.0927    3.2706   55.4630 H       1  ZINC001127302705    0.1800
     51 H51        -7.0099    3.5909   57.9263 H       1  ZINC001127302705    0.1600
@<TRIPOS>BOND
     1     1     2    1
     2     1    29    1
     3     1    30    1
     4     1    31    1
     5     2     3    1
     6     2    32    1
     7     2    33    1
     8     3     4    1
     9     3     5    1
    10     3    14    1
    11     4    34    1
    12     4    35    1
    13     4    36    1
    14     5     6    1
    15     5    37    1
    16     5    38    1
    17     6     7    1
    18     7    12   ar
    19     7     8   ar
    20     8     9   ar
    21     9    10   ar
    22     9    39    1
    23    10    11   ar
    24    10    40    1
    25    11    12   ar
    26    11    41    1
    27    12    13    1
    28    14    15   am
    29    14    42    1
    30    15    16    2
    31    15    17    1
    32    17    28    1
    33    17    18    2
    34    18    19    1
    35    19    20    1
    36    19    27    1
    37    20    21    1
    38    20    43    1
    39    20    44    1
    40    21    26   ar
    41    21    22   ar
    42    22    23   ar
    43    22    45    1
    44    23    24   ar
    45    23    46    1
    46    24    25   ar
    47    24    47    1
    48    25    26   ar
    49    25    48    1
    50    26    49    1
    51    27    28    2
    52    27    50    1
    53    28    51    1
@<TRIPOS>SUBSTRUCTURE
     1 ZINC001127302705        1 TEMP              0 ****  ****    0 ROOT


##########                                Name:    ZINC000442010511
##########                DOCK_Rotatable_Bonds:                  11
##########                         Heavy_Atoms:                  31
##########                    Molecular_Weight:             422.481
##########                DOCK_Rotatable_Bonds:                  11
##########                       Formal_Charge:          -0.0200005
##########                     HBond_Acceptors:                   7
##########                        HBond_Donors:                   2
##########                         Heavy_Atoms:                  31
##########                          Grid_Score:          -34.579918
##########                     Grid_vdw_energy:          -33.746895
##########                      Grid_es_energy:           -0.833022
##########           Internal_energy_repulsive:            7.522686

@<TRIPOS>MOLECULE
ZINC000442010511
 57 59 1 0 0
SMALL
USER_CHARGES


@<TRIPOS>ATOM
      1 C1         -8.3111    4.5849   48.7953 C.3     1  ZINC000442010511   -0.1500
      2 C2         -7.6200    5.3797   49.9050 C.3     1  ZINC000442010511   -0.0500
      3 C3         -7.1583    4.4363   50.9858 C.2     1  ZINC000442010511    0.0000
      4 C4         -5.9187    3.9294   51.1105 C.2     1  ZINC000442010511   -0.2100
      5 C5         -5.9292    3.0984   52.2544 C.2     1  ZINC000442010511   -0.1900
      6 C6         -7.1746    3.1474   52.7602 C.2     1  ZINC000442010511   -0.0300
      7 C7         -7.6572    2.4160   53.9862 C.3     1  ZINC000442010511    0.2400
      8 H8         -8.7308    2.5663   54.0998 H       1  ZINC000442010511    0.1400
      9 C9         -7.3644    0.9217   53.8369 C.3     1  ZINC000442010511    0.0500
     10 O10        -8.1063    0.3989   52.7331 O.3     1  ZINC000442010511   -0.3800
     11 C11        -8.1737   -1.0282   52.7019 C.3     1  ZINC000442010511    0.0300
     12 N12        -6.9639    2.9337   55.1684 N.am    1  ZINC000442010511   -0.6900
     13 C13        -7.4175    2.6328   56.4013 C.2     1  ZINC000442010511    0.5200
     14 O14        -8.4011    1.9341   56.5322 O.2     1  ZINC000442010511   -0.5100
     15 C15        -6.7097    3.1590   57.6064 C.2     1  ZINC000442010511    0.5100
     16 O16        -6.9969    2.7414   58.7094 O.2     1  ZINC000442010511   -0.5000
     17 N17        -5.7522    4.0974   57.4693 N.am    1  ZINC000442010511   -0.6300
     18 C18        -5.0894    4.5903   58.5979 C.ar    1  ZINC000442010511    0.1200
     19 C19        -5.6439    5.6286   59.3324 C.ar    1  ZINC000442010511   -0.1000
     20 C20        -4.9868    6.1139   60.4473 C.ar    1  ZINC000442010511   -0.1300
     21 C21        -3.7770    5.5673   60.8338 C.ar    1  ZINC000442010511   -0.0900
     22 C22        -3.2174    4.5327   60.1071 C.ar    1  ZINC000442010511   -0.1700
     23 C23        -3.8721    4.0358   58.9917 C.ar    1  ZINC000442010511    0.1000
     24 O24        -3.3233    3.0187   58.2761 O.3     1  ZINC000442010511   -0.2600
     25 C25        -2.0725    3.1936   57.7749 C.ar    1  ZINC000442010511    0.0800
     26 C26        -1.8979    3.7924   56.5354 C.ar    1  ZINC000442010511   -0.1300
     27 C27        -0.6253    3.9694   56.0282 C.ar    1  ZINC000442010511   -0.1100
     28 C28         0.4741    3.5499   56.7544 C.ar    1  ZINC000442010511   -0.0800
     29 C29         1.8613    3.7438   56.1984 C.3     1  ZINC000442010511   -0.1200
     30 C30         0.3030    2.9533   57.9900 C.ar    1  ZINC000442010511   -0.1100
     31 C31        -0.9673    2.7787   58.5041 C.ar    1  ZINC000442010511   -0.1100
     32 O32        -7.9132    3.9638   51.9910 O.3     1  ZINC000442010511   -0.1600
     33 H33        -7.6101    3.8646   48.3737 H       1  ZINC000442010511    0.0600
     34 H34        -9.1706    4.0566   49.2080 H       1  ZINC000442010511    0.0600
     35 H35        -8.6451    5.2672   48.0136 H       1  ZINC000442010511    0.0700
     36 H36        -6.7606    5.9080   49.4923 H       1  ZINC000442010511    0.0900
     37 H37        -8.3210    6.1001   50.3266 H       1  ZINC000442010511    0.0800
     38 H38        -5.0770    4.1199   50.4612 H       1  ZINC000442010511    0.1500
     39 H39        -5.0970    2.5326   52.6465 H       1  ZINC000442010511    0.1500
     40 H40        -6.2988    0.7761   53.6601 H       1  ZINC000442010511    0.0700
     41 H41        -7.6558    0.4015   54.7495 H       1  ZINC000442010511    0.0700
     42 H42        -8.7533   -1.3457   51.8350 H       1  ZINC000442010511    0.0900
     43 H43        -7.1660   -1.4381   52.6353 H       1  ZINC000442010511    0.0400
     44 H44        -8.6535   -1.3892   53.6116 H       1  ZINC000442010511    0.0400
     45 H45        -6.1784    3.4932   55.0637 H       1  ZINC000442010511    0.4200
     46 H46        -5.5228    4.4311   56.5879 H       1  ZINC000442010511    0.4300
     47 H47        -6.5887    6.0578   59.0329 H       1  ZINC000442010511    0.1600
     48 H48        -5.4194    6.9224   61.0180 H       1  ZINC000442010511    0.1300
     49 H49        -3.2675    5.9500   61.7057 H       1  ZINC000442010511    0.1300
     50 H50        -2.2719    4.1088   60.4115 H       1  ZINC000442010511    0.1300
     51 H51        -2.7564    4.1196   55.9675 H       1  ZINC000442010511    0.1300
     52 H52        -0.4888    4.4355   55.0636 H       1  ZINC000442010511    0.1300
     53 H53         2.2484    4.7118   56.5169 H       1  ZINC000442010511    0.0700
     54 H54         2.5142    2.9525   56.5666 H       1  ZINC000442010511    0.0700
     55 H55         1.8247    3.7075   55.1097 H       1  ZINC000442010511    0.0700
     56 H56         1.1634    2.6265   58.5551 H       1  ZINC000442010511    0.1300
     57 H57        -1.1003    2.3128   59.4693 H       1  ZINC000442010511    0.1300
@<TRIPOS>BOND
     1     1     2    1
     2     1    33    1
     3     1    34    1
     4     1    35    1
     5     2     3    1
     6     2    36    1
     7     2    37    1
     8     3    32    1
     9     3     4    2
    10     4     5    1
    11     4    38    1
    12     5     6    2
    13     5    39    1
    14     6     7    1
    15     6    32    1
    16     7     8    1
    17     7     9    1
    18     7    12    1
    19     9    10    1
    20     9    40    1
    21     9    41    1
    22    10    11    1
    23    11    42    1
    24    11    43    1
    25    11    44    1
    26    12    13   am
    27    12    45    1
    28    13    14    2
    29    13    15    1
    30    15    16    2
    31    15    17   am
    32    17    18    1
    33    17    46    1
    34    18    23   ar
    35    18    19   ar
    36    19    20   ar
    37    19    47    1
    38    20    21   ar
    39    20    48    1
    40    21    22   ar
    41    21    49    1
    42    22    23   ar
    43    22    50    1
    44    23    24    1
    45    24    25    1
    46    25    31   ar
    47    25    26   ar
    48    26    27   ar
    49    26    51    1
    50    27    28   ar
    51    27    52    1
    52    28    29    1
    53    28    30   ar
    54    29    53    1
    55    29    54    1
    56    29    55    1
    57    30    31   ar
    58    30    56    1
    59    31    57    1
@<TRIPOS>SUBSTRUCTURE
     1 ZINC000442010511        1 TEMP              0 ****  ****    0 ROOT


##########                                Name:    ZINC000558213406
##########                DOCK_Rotatable_Bonds:                   8
##########                         Heavy_Atoms:                  30
##########                    Molecular_Weight:               408.5
##########                DOCK_Rotatable_Bonds:                   8
##########                       Formal_Charge:          -0.0299987
##########                     HBond_Acceptors:                   7
##########                        HBond_Donors:                   2
##########                         Heavy_Atoms:                  30
##########                          Grid_Score:          -34.479023
##########                     Grid_vdw_energy:          -33.391586
##########                      Grid_es_energy:           -1.087436
##########           Internal_energy_repulsive:           12.687030

@<TRIPOS>MOLECULE
ZINC000558213406
 58 61 1 0 0
SMALL
USER_CHARGES


@<TRIPOS>ATOM
      1 O1         -9.8753    0.4946   61.5100 O.2     1  ZINC000558213406   -0.5700
      2 C2         -8.8238   -0.1108   61.5893 C.2     1  ZINC000558213406    0.7100
      3 N3         -8.2517   -0.6160   60.4785 N.am    1  ZINC000558213406   -0.6800
      4 C4         -8.8716   -0.4485   59.2329 C.ar    1  ZINC000558213406    0.1700
      5 C5         -9.7352   -1.4230   58.7504 C.ar    1  ZINC000558213406   -0.1300
      6 C6        -10.3462   -1.2572   57.5233 C.ar    1  ZINC000558213406   -0.1100
      7 C7        -10.0971   -0.1176   56.7722 C.ar    1  ZINC000558213406    0.0600
      8 O8        -10.6986    0.0449   55.5638 O.3     1  ZINC000558213406   -0.2500
      9 C9         -9.9968   -0.2952   54.4509 C.ar    1  ZINC000558213406    0.0700
     10 C10        -8.6185   -0.1112   54.4022 C.ar    1  ZINC000558213406   -0.1500
     11 C11        -7.9465   -0.4730   53.2457 C.ar    1  ZINC000558213406   -0.1300
     12 C12        -8.6612   -1.0007   52.1868 C.ar    1  ZINC000558213406    0.0600
     13 N13        -9.9678   -1.1618   52.2651 N.ar    1  ZINC000558213406   -0.4500
     14 C14       -10.6437   -0.8363   53.3488 C.ar    1  ZINC000558213406    0.0800
     15 C15        -9.2347    0.8566   57.2541 C.ar    1  ZINC000558213406   -0.1000
     16 C16        -8.6272    0.6944   58.4835 C.ar    1  ZINC000558213406   -0.1100
     17 N17        -8.2275   -0.2718   62.7872 N.am    1  ZINC000558213406   -0.7300
     18 C18        -8.8494    0.2774   63.9947 C.3     1  ZINC000558213406    0.1500
     19 H19        -9.8522   -0.1284   64.1289 H       1  ZINC000558213406    0.1100
     20 C20        -7.9710   -0.0059   65.2419 C.3     1  ZINC000558213406   -0.1400
     21 C21        -8.3822    1.1547   66.1819 C.3     1  ZINC000558213406    0.1000
     22 N22        -8.5775    2.3120   65.2896 N.am    1  ZINC000558213406   -0.6200
     23 C23        -8.4895    3.6071   65.6522 C.2     1  ZINC000558213406    0.5400
     24 O24        -8.2297    3.8990   66.8002 O.2     1  ZINC000558213406   -0.5300
     25 C25        -8.7142    4.6923   64.6310 C.3     1  ZINC000558213406   -0.1000
     26 C26       -10.1974    5.0664   64.6023 C.3     1  ZINC000558213406   -0.1100
     27 C27       -10.4255    6.1682   63.5655 C.3     1  ZINC000558213406   -0.1200
     28 C28        -9.5963    7.3989   63.9383 C.3     1  ZINC000558213406   -0.1200
     29 C29        -8.1130    7.0246   63.9671 C.3     1  ZINC000558213406   -0.1200
     30 C30        -7.8850    5.9228   65.0038 C.3     1  ZINC000558213406   -0.1100
     31 C31        -8.8874    1.8190   63.9364 C.3     1  ZINC000558213406    0.1000
     32 H32        -7.4108   -1.0954   60.5411 H       1  ZINC000558213406    0.4100
     33 H33        -9.9286   -2.3104   59.3346 H       1  ZINC000558213406    0.1300
     34 H34       -11.0179   -2.0152   57.1479 H       1  ZINC000558213406    0.1400
     35 H35        -8.0857    0.3037   55.2449 H       1  ZINC000558213406    0.1400
     36 H36        -6.8767   -0.3440   53.1724 H       1  ZINC000558213406    0.1400
     37 H37        -8.1427   -1.2845   51.2829 H       1  ZINC000558213406    0.1600
     38 H38       -11.7133   -0.9831   53.3759 H       1  ZINC000558213406    0.1700
     39 H39        -9.0412    1.7436   56.6690 H       1  ZINC000558213406    0.1400
     40 H40        -7.9562    1.4529   58.8586 H       1  ZINC000558213406    0.1500
     41 H41        -7.3866   -0.7512   62.8498 H       1  ZINC000558213406    0.4000
     42 H42        -8.2181   -0.9718   65.6825 H       1  ZINC000558213406    0.0900
     43 H43        -6.9111    0.0490   64.9939 H       1  ZINC000558213406    0.0800
     44 H44        -9.3109    0.9133   66.6988 H       1  ZINC000558213406    0.0700
     45 H45        -7.5890    1.3596   66.9008 H       1  ZINC000558213406    0.0800
     46 H46        -8.4106    4.3340   63.6473 H       1  ZINC000558213406    0.0900
     47 H47       -10.7882    4.1897   64.3367 H       1  ZINC000558213406    0.0600
     48 H48       -10.5009    5.4246   65.5860 H       1  ZINC000558213406    0.0700
     49 H49       -10.1220    5.8100   62.5818 H       1  ZINC000558213406    0.0600
     50 H50       -11.4821    6.4348   63.5451 H       1  ZINC000558213406    0.0700
     51 H51        -9.7588    8.1837   63.1997 H       1  ZINC000558213406    0.0600
     52 H52        -9.8998    7.7570   64.9220 H       1  ZINC000558213406    0.0600
     53 H53        -7.8095    6.6665   62.9834 H       1  ZINC000558213406    0.0600
     54 H54        -7.5223    7.9014   64.2326 H       1  ZINC000558213406    0.0700
     55 H55        -8.1884    6.2811   65.9875 H       1  ZINC000558213406    0.0800
     56 H56        -6.8283    5.6563   65.0243 H       1  ZINC000558213406    0.0600
     57 H57        -8.1396    2.1796   63.2302 H       1  ZINC000558213406    0.0800
     58 H58        -9.8785    2.1592   63.6359 H       1  ZINC000558213406    0.0800
@<TRIPOS>BOND
     1     1     2    2
     2     2     3   am
     3     2    17   am
     4     3     4    1
     5     3    32    1
     6     4    16   ar
     7     4     5   ar
     8     5     6   ar
     9     5    33    1
    10     6     7   ar
    11     6    34    1
    12     7     8    1
    13     7    15   ar
    14     8     9    1
    15     9    14   ar
    16     9    10   ar
    17    10    11   ar
    18    10    35    1
    19    11    12   ar
    20    11    36    1
    21    12    13   ar
    22    12    37    1
    23    13    14   ar
    24    14    38    1
    25    15    16   ar
    26    15    39    1
    27    16    40    1
    28    17    18    1
    29    17    41    1
    30    18    19    1
    31    18    31    1
    32    18    20    1
    33    20    21    1
    34    20    42    1
    35    20    43    1
    36    21    22    1
    37    21    44    1
    38    21    45    1
    39    22    23   am
    40    22    31    1
    41    23    24    2
    42    23    25    1
    43    25    30    1
    44    25    26    1
    45    25    46    1
    46    26    27    1
    47    26    47    1
    48    26    48    1
    49    27    28    1
    50    27    49    1
    51    27    50    1
    52    28    29    1
    53    28    51    1
    54    28    52    1
    55    29    30    1
    56    29    53    1
    57    29    54    1
    58    30    55    1
    59    30    56    1
    60    31    57    1
    61    31    58    1
@<TRIPOS>SUBSTRUCTURE
     1 ZINC000558213406        1 TEMP              0 ****  ****    0 ROOT


##########                                Name:    ZINC000489986384
##########                DOCK_Rotatable_Bonds:                  11
##########                         Heavy_Atoms:                  31
##########                    Molecular_Weight:             415.492
##########                DOCK_Rotatable_Bonds:                  11
##########                       Formal_Charge:          -0.0499997
##########                     HBond_Acceptors:                   6
##########                        HBond_Donors:                   2
##########                         Heavy_Atoms:                  31
##########                          Grid_Score:          -34.470791
##########                     Grid_vdw_energy:          -34.896969
##########                      Grid_es_energy:            0.426178
##########           Internal_energy_repulsive:           11.770874

@<TRIPOS>MOLECULE
ZINC000489986384
 56 59 1 0 0
SMALL
USER_CHARGES


@<TRIPOS>ATOM
      1 O1        -10.8990   -1.6709   61.0444 O.2     1  ZINC000489986384   -0.5000
      2 C2        -10.1483   -1.5682   60.0974 C.2     1  ZINC000489986384    0.4900
      3 C3         -8.7407   -1.0704   60.3021 C.3     1  ZINC000489986384    0.0900
      4 N4         -8.7777    0.2698   60.8925 N.pl3   1  ZINC000489986384   -0.4700
      5 C5         -8.8116    0.5699   62.2397 C.ar    1  ZINC000489986384    0.0700
      6 C6         -8.8226   -0.1920   63.3997 C.ar    1  ZINC000489986384   -0.1100
      7 C7         -8.8603    0.4342   64.6277 C.ar    1  ZINC000489986384   -0.0900
      8 C8         -8.8878    1.8189   64.7104 C.ar    1  ZINC000489986384   -0.1300
      9 C9         -8.8780    2.5849   63.5791 C.ar    1  ZINC000489986384   -0.0600
     10 C10        -8.8391    1.9725   62.3240 C.ar    1  ZINC000489986384    0.0500
     11 N11        -8.8213    2.4454   61.0513 N.2     1  ZINC000489986384   -0.4600
     12 C12        -8.7790    1.4496   60.2151 C.2     1  ZINC000489986384    0.2800
     13 C13        -8.7477    1.5832   58.7144 C.3     1  ZINC000489986384    0.1400
     14 O14        -7.4206    1.9036   58.2922 O.3     1  ZINC000489986384   -0.3000
     15 C15        -7.2476    2.2094   56.9794 C.ar    1  ZINC000489986384    0.1300
     16 C16        -7.9091    1.4790   56.0029 C.ar    1  ZINC000489986384   -0.2100
     17 C17        -7.7320    1.7922   54.6691 C.ar    1  ZINC000489986384   -0.0800
     18 C18        -6.8959    2.8321   54.3070 C.ar    1  ZINC000489986384   -0.1600
     19 C19        -6.2351    3.5612   55.2783 C.ar    1  ZINC000489986384   -0.0800
     20 C20        -6.4137    3.2560   56.6138 C.ar    1  ZINC000489986384   -0.1500
     21 N21       -10.5712   -1.9046   58.8627 N.am    1  ZINC000489986384   -0.7300
     22 C22       -11.9395   -2.3885   58.6637 C.3     1  ZINC000489986384    0.1300
     23 C23       -12.0125   -3.1912   57.3632 C.3     1  ZINC000489986384   -0.0600
     24 H24       -11.1631   -3.8723   57.3083 H       1  ZINC000489986384    0.0900
     25 C25       -13.3136   -3.9954   57.3326 C.3     1  ZINC000489986384    0.0800
     26 O26       -14.2097   -3.4898   58.3244 O.3     1  ZINC000489986384   -0.5700
     27 C27       -11.9770   -2.2483   56.1882 C.ar    1  ZINC000489986384   -0.0700
     28 C28       -10.8509   -2.1819   55.3891 C.ar    1  ZINC000489986384   -0.1100
     29 C29       -10.8184   -1.3169   54.3113 C.ar    1  ZINC000489986384   -0.1200
     30 C30       -11.9119   -0.5187   54.0323 C.ar    1  ZINC000489986384   -0.1200
     31 C31       -13.0383   -0.5857   54.8309 C.ar    1  ZINC000489986384   -0.1200
     32 C32       -13.0725   -1.4538   55.9062 C.ar    1  ZINC000489986384   -0.1100
     33 H33        -8.2095   -1.7476   60.9711 H       1  ZINC000489986384    0.1200
     34 H34        -8.2262   -1.0304   59.3421 H       1  ZINC000489986384    0.1200
     35 H35        -8.8020   -1.2702   63.3410 H       1  ZINC000489986384    0.1200
     36 H36        -8.8690   -0.1573   65.5313 H       1  ZINC000489986384    0.1300
     37 H37        -8.9177    2.2960   65.6788 H       1  ZINC000489986384    0.1300
     38 H38        -8.9005    3.6620   63.6548 H       1  ZINC000489986384    0.1300
     39 H39        -9.0566    0.6422   58.2593 H       1  ZINC000489986384    0.0800
     40 H40        -9.4285    2.3767   58.4059 H       1  ZINC000489986384    0.1000
     41 H41        -8.5618    0.6662   56.2852 H       1  ZINC000489986384    0.1300
     42 H42        -8.2467    1.2239   53.9085 H       1  ZINC000489986384    0.1300
     43 H43        -6.7585    3.0751   53.2637 H       1  ZINC000489986384    0.1200
     44 H44        -5.5823    4.3730   54.9930 H       1  ZINC000489986384    0.1300
     45 H45        -5.8973    3.8259   57.3721 H       1  ZINC000489986384    0.1300
     46 H46        -9.9695   -1.8262   58.1058 H       1  ZINC000489986384    0.4000
     47 H47       -12.2248   -3.0259   59.5005 H       1  ZINC000489986384    0.0800
     48 H48       -12.6204   -1.5394   58.6051 H       1  ZINC000489986384    0.0800
     49 H49       -13.7732   -3.9058   56.3483 H       1  ZINC000489986384    0.0500
     50 H50       -13.0978   -5.0438   57.5386 H       1  ZINC000489986384    0.0500
     51 H51       -15.0558   -3.9564   58.3646 H       1  ZINC000489986384    0.3800
     52 H52        -9.9966   -2.8055   55.6071 H       1  ZINC000489986384    0.1200
     53 H53        -9.9384   -1.2645   53.6874 H       1  ZINC000489986384    0.1200
     54 H54       -11.8862    0.1576   53.1906 H       1  ZINC000489986384    0.1200
     55 H55       -13.8926    0.0381   54.6131 H       1  ZINC000489986384    0.1200
     56 H56       -13.9525   -1.5062   56.5300 H       1  ZINC000489986384    0.1200
@<TRIPOS>BOND
     1     1     2    2
     2     2     3    1
     3     2    21   am
     4     3     4    1
     5     3    33    1
     6     3    34    1
     7     4    12    1
     8     4     5    1
     9     5    10   ar
    10     5     6   ar
    11     6     7   ar
    12     6    35    1
    13     7     8   ar
    14     7    36    1
    15     8     9   ar
    16     8    37    1
    17     9    10   ar
    18     9    38    1
    19    10    11    1
    20    11    12    2
    21    12    13    1
    22    13    14    1
    23    13    39    1
    24    13    40    1
    25    14    15    1
    26    15    20   ar
    27    15    16   ar
    28    16    17   ar
    29    16    41    1
    30    17    18   ar
    31    17    42    1
    32    18    19   ar
    33    18    43    1
    34    19    20   ar
    35    19    44    1
    36    20    45    1
    37    21    22    1
    38    21    46    1
    39    22    23    1
    40    22    47    1
    41    22    48    1
    42    23    24    1
    43    23    25    1
    44    23    27    1
    45    25    26    1
    46    25    49    1
    47    25    50    1
    48    26    51    1
    49    27    32   ar
    50    27    28   ar
    51    28    29   ar
    52    28    52    1
    53    29    30   ar
    54    29    53    1
    55    30    31   ar
    56    30    54    1
    57    31    32   ar
    58    31    55    1
    59    32    56    1
@<TRIPOS>SUBSTRUCTURE
     1 ZINC000489986384        1 TEMP              0 ****  ****    0 ROOT


##########                                Name:    ZINC000484900616
##########                DOCK_Rotatable_Bonds:                  10
##########                         Heavy_Atoms:                  29
##########                    Molecular_Weight:             415.556
##########                DOCK_Rotatable_Bonds:                  10
##########                       Formal_Charge:        -1.49012e-08
##########                     HBond_Acceptors:                   7
##########                        HBond_Donors:                   1
##########                         Heavy_Atoms:                  29
##########                          Grid_Score:          -34.470219
##########                     Grid_vdw_energy:          -32.147652
##########                      Grid_es_energy:           -2.322568
##########           Internal_energy_repulsive:            8.444293

@<TRIPOS>MOLECULE
ZINC000484900616
 58 60 1 0 0
SMALL
USER_CHARGES


@<TRIPOS>ATOM
      1 C1          2.5820    0.1751   61.9038 C.3     1  ZINC000484900616   -0.1500
      2 C2          2.7520    1.3258   60.9098 C.3     1  ZINC000484900616    0.0600
      3 O3          1.4886    1.5772   60.2398 O.3     1  ZINC000484900616   -0.3400
      4 C4          1.4762    2.5427   59.2992 C.2     1  ZINC000484900616    0.5500
      5 O5          2.5055    3.1193   59.0066 O.2     1  ZINC000484900616   -0.5000
      6 C6          0.2170    2.8985   58.6268 C.2     1  ZINC000484900616    0.0200
      7 C7         -0.9879    2.4175   59.0099 C.2     1  ZINC000484900616   -0.2400
      8 S8         -2.1919    3.0655   57.9840 S.3     1  ZINC000484900616    0.2900
      9 C9         -1.0190    3.9404   57.1037 C.2     1  ZINC000484900616    0.0300
     10 C10        -1.3193    4.8373   55.9303 C.3     1  ZINC000484900616    0.1500
     11 H11        -2.3143    4.6272   55.5380 H       1  ZINC000484900616    0.0900
     12 C12        -1.2067    6.3252   56.3463 C.3     1  ZINC000484900616   -0.1200
     13 C13        -0.9156    7.0099   54.9849 C.3     1  ZINC000484900616   -0.1400
     14 C14        -0.0336    5.9742   54.2563 C.3     1  ZINC000484900616    0.0500
     15 N15        -0.3012    4.6601   54.8731 N.3     1  ZINC000484900616   -0.5100
     16 C16        -0.7454    3.6868   53.8666 C.3     1  ZINC000484900616    0.0300
     17 C17         0.3805    3.4103   52.9038 C.2     1  ZINC000484900616    0.5200
     18 O18         0.3756    3.9189   51.8028 O.2     1  ZINC000484900616   -0.5100
     19 N19         1.3928    2.5978   53.2663 N.am    1  ZINC000484900616   -0.7300
     20 C20         2.4882    2.3303   52.3309 C.3     1  ZINC000484900616    0.1900
     21 H21         2.7847    3.2590   51.8434 H       1  ZINC000484900616    0.1000
     22 C22         3.6811    1.7518   53.0948 C.3     1  ZINC000484900616   -0.1600
     23 C23         2.0303    1.3408   51.2906 C.ar    1  ZINC000484900616   -0.1000
     24 C24         1.3823    0.1823   51.6765 C.ar    1  ZINC000484900616   -0.1100
     25 C25         0.9623   -0.7253   50.7223 C.ar    1  ZINC000484900616   -0.1100
     26 C26         1.1897   -0.4743   49.3821 C.ar    1  ZINC000484900616   -0.0800
     27 C27         0.7322   -1.4639   48.3418 C.3     1  ZINC000484900616   -0.0900
     28 C28        -0.7921   -1.4093   48.2215 C.3     1  ZINC000484900616   -0.1500
     29 C29         1.8364    0.6849   48.9961 C.ar    1  ZINC000484900616   -0.1100
     30 C30         2.2531    1.5944   49.9502 C.ar    1  ZINC000484900616   -0.1000
     31 N31         0.1557    3.7316   57.5841 N.2     1  ZINC000484900616   -0.4300
     32 H32         1.8258    0.4416   62.6423 H       1  ZINC000484900616    0.0700
     33 H33         2.2687   -0.7224   61.3705 H       1  ZINC000484900616    0.0700
     34 H34         3.5305   -0.0136   62.4069 H       1  ZINC000484900616    0.0800
     35 H35         3.0653    2.2233   61.4432 H       1  ZINC000484900616    0.0700
     36 H36         3.5083    1.0594   60.1715 H       1  ZINC000484900616    0.0700
     37 H37        -1.1609    1.7357   59.8295 H       1  ZINC000484900616    0.1900
     38 H38        -2.1443    6.6839   56.7711 H       1  ZINC000484900616    0.0900
     39 H39        -0.3817    6.4746   57.0427 H       1  ZINC000484900616    0.0800
     40 H40        -1.8407    7.1830   54.4350 H       1  ZINC000484900616    0.0700
     41 H41        -0.3726    7.9436   55.1313 H       1  ZINC000484900616    0.0800
     42 H42        -0.2929    5.9450   53.1981 H       1  ZINC000484900616    0.0600
     43 H43         1.0184    6.2338   54.3756 H       1  ZINC000484900616    0.0900
     44 H44        -1.0366    2.7600   54.3609 H       1  ZINC000484900616    0.1100
     45 H45        -1.5983    4.0914   53.3216 H       1  ZINC000484900616    0.0700
     46 H46         1.3961    2.1899   54.1463 H       1  ZINC000484900616    0.4000
     47 H47         4.4962    1.5528   52.3990 H       1  ZINC000484900616    0.0700
     48 H48         4.0124    2.4676   53.8472 H       1  ZINC000484900616    0.0700
     49 H49         3.3846    0.8231   53.5823 H       1  ZINC000484900616    0.0600
     50 H50         1.2047   -0.0139   52.7236 H       1  ZINC000484900616    0.1200
     51 H51         0.4567   -1.6309   51.0238 H       1  ZINC000484900616    0.1200
     52 H52         1.1817   -1.2146   47.3806 H       1  ZINC000484900616    0.0700
     53 H53         1.0377   -2.4680   48.6363 H       1  ZINC000484900616    0.0700
     54 H54        -1.2416   -1.6588   49.1827 H       1  ZINC000484900616    0.0600
     55 H55        -1.0977   -0.4054   47.9270 H       1  ZINC000484900616    0.0600
     56 H56        -1.1230   -2.1252   47.4691 H       1  ZINC000484900616    0.0600
     57 H57         2.0138    0.8813   47.9490 H       1  ZINC000484900616    0.1200
     58 H58         2.7583    2.5001   49.6486 H       1  ZINC000484900616    0.1200
@<TRIPOS>BOND
     1     1     2    1
     2     1    32    1
     3     1    33    1
     4     1    34    1
     5     2     3    1
     6     2    35    1
     7     2    36    1
     8     3     4    1
     9     4     5    2
    10     4     6    1
    11     6    31    1
    12     6     7    2
    13     7     8    1
    14     7    37    1
    15     8     9    1
    16     9    10    1
    17     9    31    2
    18    10    11    1
    19    10    15    1
    20    10    12    1
    21    12    13    1
    22    12    38    1
    23    12    39    1
    24    13    14    1
    25    13    40    1
    26    13    41    1
    27    14    15    1
    28    14    42    1
    29    14    43    1
    30    15    16    1
    31    16    17    1
    32    16    44    1
    33    16    45    1
    34    17    18    2
    35    17    19   am
    36    19    20    1
    37    19    46    1
    38    20    21    1
    39    20    22    1
    40    20    23    1
    41    22    47    1
    42    22    48    1
    43    22    49    1
    44    23    30   ar
    45    23    24   ar
    46    24    25   ar
    47    24    50    1
    48    25    26   ar
    49    25    51    1
    50    26    27    1
    51    26    29   ar
    52    27    28    1
    53    27    52    1
    54    27    53    1
    55    28    54    1
    56    28    55    1
    57    28    56    1
    58    29    30   ar
    59    29    57    1
    60    30    58    1
@<TRIPOS>SUBSTRUCTURE
     1 ZINC000484900616        1 TEMP              0 ****  ****    0 ROOT


##########                                Name:    ZINC000465642058
##########                DOCK_Rotatable_Bonds:                  10
##########                         Heavy_Atoms:                  31
##########                    Molecular_Weight:             420.511
##########                DOCK_Rotatable_Bonds:                  10
##########                       Formal_Charge:          1.2666e-07
##########                     HBond_Acceptors:                   7
##########                        HBond_Donors:                   2
##########                         Heavy_Atoms:                  31
##########                          Grid_Score:          -34.390633
##########                     Grid_vdw_energy:          -32.473442
##########                      Grid_es_energy:           -1.917192
##########           Internal_energy_repulsive:           13.183697

@<TRIPOS>MOLECULE
ZINC000465642058
 59 62 1 0 0
SMALL
USER_CHARGES


@<TRIPOS>ATOM
      1 C1        -14.9410   -1.0853   59.8517 C.3     1  ZINC000465642058   -0.1500
      2 C2        -13.6342   -1.4185   60.5746 C.3     1  ZINC000465642058    0.0500
      3 O3        -12.5960   -0.5574   60.1029 O.3     1  ZINC000465642058   -0.3000
      4 C4        -11.4433   -0.5279   60.8237 C.ar    1  ZINC000465642058    0.1200
      5 C5        -11.4219    0.0584   62.0814 C.ar    1  ZINC000465642058   -0.1600
      6 C6        -10.2519    0.0844   62.8078 C.ar    1  ZINC000465642058   -0.1300
      7 C7         -9.0869   -0.4761   62.3012 C.ar    1  ZINC000465642058    0.0700
      8 C8         -9.1134   -1.0588   61.0365 C.ar    1  ZINC000465642058   -0.0700
      9 C9        -10.2840   -1.0888   60.3082 C.ar    1  ZINC000465642058   -0.1100
     10 C10       -10.3010   -1.7226   58.9411 C.3     1  ZINC000465642058    0.1900
     11 N11       -10.3500   -0.6753   57.9179 N.am    1  ZINC000465642058   -0.7300
     12 C12       -10.3943   -1.0096   56.6130 C.2     1  ZINC000465642058    0.7100
     13 O13       -10.3922   -2.1804   56.2850 O.2     1  ZINC000465642058   -0.5900
     14 N14       -10.4410   -0.0462   55.6717 N.am    1  ZINC000465642058   -0.6200
     15 C15       -10.4455    1.3645   56.0670 C.3     1  ZINC000465642058    0.1900
     16 C16        -9.0268    1.8409   56.2443 C.2     1  ZINC000465642058    0.0500
     17 N17        -7.9755    1.3673   55.6259 N.2     1  ZINC000465642058   -0.2700
     18 N18        -6.8514    2.0773   56.0672 N.pl3   1  ZINC000465642058   -0.4700
     19 C19        -7.2652    2.9910   56.9698 C.2     1  ZINC000465642058    0.0600
     20 C20        -8.6072    2.8699   57.0938 C.2     1  ZINC000465642058   -0.2600
     21 C21       -10.4875   -0.4095   54.2532 C.3     1  ZINC000465642058    0.1700
     22 C22       -11.9226   -0.4740   53.7980 C.ar    1  ZINC000465642058   -0.1100
     23 C23       -12.9112   -0.8648   54.6816 C.ar    1  ZINC000465642058   -0.0900
     24 C24       -14.2276   -0.9240   54.2640 C.ar    1  ZINC000465642058   -0.1200
     25 C25       -14.5555   -0.5919   52.9628 C.ar    1  ZINC000465642058   -0.1200
     26 C26       -13.5671   -0.2003   52.0794 C.ar    1  ZINC000465642058   -0.1300
     27 C27       -12.2512   -0.1369   52.4982 C.ar    1  ZINC000465642058   -0.1100
     28 O28        -8.0588   -0.3612   63.1877 O.3     1  ZINC000465642058   -0.3000
     29 C29        -8.3693    0.6688   64.1414 C.3     1  ZINC000465642058    0.0800
     30 H30        -8.0023    1.6361   63.7984 H       1  ZINC000465642058    0.0900
     31 C31        -7.7896    0.3277   65.5157 C.3     1  ZINC000465642058   -0.1500
     32 C32        -9.9158    0.6497   64.1743 C.3     1  ZINC000465642058   -0.1100
     33 H33       -14.8095   -1.2283   58.7792 H       1  ZINC000465642058    0.0700
     34 H34       -15.7329   -1.7421   60.2116 H       1  ZINC000465642058    0.0800
     35 H35       -15.2113   -0.0480   60.0495 H       1  ZINC000465642058    0.0700
     36 H36       -13.7656   -1.2754   61.6471 H       1  ZINC000465642058    0.0600
     37 H37       -13.3639   -2.4558   60.3768 H       1  ZINC000465642058    0.0600
     38 H38       -12.3217    0.4942   62.4900 H       1  ZINC000465642058    0.1300
     39 H39        -8.2138   -1.4932   60.6260 H       1  ZINC000465642058    0.1400
     40 H40        -9.3995   -2.3202   58.8065 H       1  ZINC000465642058    0.0700
     41 H41       -11.1784   -2.3626   58.8483 H       1  ZINC000465642058    0.0800
     42 H42       -10.3505    0.2588   58.1795 H       1  ZINC000465642058    0.4000
     43 H43       -10.9336    1.9571   55.2934 H       1  ZINC000465642058    0.1000
     44 H44       -10.9865    1.4768   57.0066 H       1  ZINC000465642058    0.0900
     45 H45        -5.9370    1.9368   55.7754 H       1  ZINC000465642058    0.4400
     46 H46        -6.6382    3.6957   57.4959 H       1  ZINC000465642058    0.1800
     47 H47        -9.2415    3.4593   57.7394 H       1  ZINC000465642058    0.1500
     48 H48        -9.9541    0.3399   53.6685 H       1  ZINC000465642058    0.0900
     49 H49       -10.0174   -1.3828   54.1119 H       1  ZINC000465642058    0.0900
     50 H50       -12.6550   -1.1243   55.6982 H       1  ZINC000465642058    0.1300
     51 H51       -14.9998   -1.2300   54.9542 H       1  ZINC000465642058    0.1200
     52 H52       -15.5839   -0.6388   52.6363 H       1  ZINC000465642058    0.1200
     53 H53       -13.8232    0.0589   51.0627 H       1  ZINC000465642058    0.1200
     54 H54       -11.4790    0.1691   51.8081 H       1  ZINC000465642058    0.1200
     55 H55        -6.7041    0.2588   65.4452 H       1  ZINC000465642058    0.0700
     56 H56        -8.0589    1.1081   66.2274 H       1  ZINC000465642058    0.0800
     57 H57        -8.1931   -0.6270   65.8533 H       1  ZINC000465642058    0.0700
     58 H58       -10.3155    1.6573   64.2881 H       1  ZINC000465642058    0.0900
     59 H59       -10.2805   -0.0040   64.9667 H       1  ZINC000465642058    0.1000
@<TRIPOS>BOND
     1     1     2    1
     2     1    33    1
     3     1    34    1
     4     1    35    1
     5     2     3    1
     6     2    36    1
     7     2    37    1
     8     3     4    1
     9     4     9   ar
    10     4     5   ar
    11     5     6   ar
    12     5    38    1
    13     6    32    1
    14     6     7   ar
    15     7     8   ar
    16     7    28    1
    17     8     9   ar
    18     8    39    1
    19     9    10    1
    20    10    11    1
    21    10    40    1
    22    10    41    1
    23    11    12   am
    24    11    42    1
    25    12    13    2
    26    12    14   am
    27    14    15    1
    28    14    21    1
    29    15    16    1
    30    15    43    1
    31    15    44    1
    32    16    20    1
    33    16    17    2
    34    17    18    1
    35    18    19    1
    36    18    45    1
    37    19    20    2
    38    19    46    1
    39    20    47    1
    40    21    22    1
    41    21    48    1
    42    21    49    1
    43    22    27   ar
    44    22    23   ar
    45    23    24   ar
    46    23    50    1
    47    24    25   ar
    48    24    51    1
    49    25    26   ar
    50    25    52    1
    51    26    27   ar
    52    26    53    1
    53    27    54    1
    54    28    29    1
    55    29    30    1
    56    29    31    1
    57    29    32    1
    58    31    55    1
    59    31    56    1
    60    31    57    1
    61    32    58    1
    62    32    59    1
@<TRIPOS>SUBSTRUCTURE
     1 ZINC000465642058        1 TEMP              0 ****  ****    0 ROOT


##########                                Name:    ZINC000981700465
##########                DOCK_Rotatable_Bonds:                   9
##########                         Heavy_Atoms:                  26
##########                    Molecular_Weight:             356.428
##########                DOCK_Rotatable_Bonds:                   9
##########                       Formal_Charge:               -0.01
##########                     HBond_Acceptors:                   8
##########                        HBond_Donors:                   3
##########                         Heavy_Atoms:                  26
##########                          Grid_Score:          -34.388363
##########                     Grid_vdw_energy:          -31.247255
##########                      Grid_es_energy:           -3.141107
##########           Internal_energy_repulsive:           11.955832

@<TRIPOS>MOLECULE
ZINC000981700465
 50 52 1 0 0
SMALL
USER_CHARGES


@<TRIPOS>ATOM
      1 C1        -12.2162    2.6314   65.3796 C.3     1  ZINC000981700465   -0.1500
      2 C2        -10.7356    2.3029   65.1775 C.3     1  ZINC000981700465   -0.1100
      3 C3        -10.4724    0.8553   65.5970 C.3     1  ZINC000981700465   -0.0500
      4 C4         -9.0268    0.5136   65.3430 C.2     1  ZINC000981700465    0.1400
      5 N5         -8.0588    0.5793   66.2150 N.2     1  ZINC000981700465   -0.2900
      6 N6         -6.8665    0.1826   65.5993 N.pl3   1  ZINC000981700465   -0.4600
      7 C7         -7.1308   -0.1295   64.3206 C.2     1  ZINC000981700465    0.1000
      8 C8         -8.4834    0.0599   64.1202 C.2     1  ZINC000981700465   -0.2900
      9 C9         -9.2212   -0.1602   62.8628 C.2     1  ZINC000981700465    0.5900
     10 O10       -10.4371   -0.1452   62.8607 O.2     1  ZINC000981700465   -0.5300
     11 N11        -8.5479   -0.3779   61.7157 N.am    1  ZINC000981700465   -0.7300
     12 C12        -9.2810   -0.5983   60.4667 C.3     1  ZINC000981700465    0.1300
     13 C13        -9.6395    0.7510   59.8409 C.3     1  ZINC000981700465   -0.1100
     14 H14       -10.1947    1.3642   60.5507 H       1  ZINC000981700465    0.0900
     15 C15        -8.3605    1.4882   59.3721 C.3     1  ZINC000981700465   -0.1200
     16 C16        -8.8992    2.4482   58.2825 C.3     1  ZINC000981700465   -0.1300
     17 C17        -9.9834    1.6257   57.5561 C.3     1  ZINC000981700465    0.1400
     18 H18       -10.8187    2.2697   57.2807 H       1  ZINC000981700465    0.1000
     19 N19        -9.4188    0.9974   56.3592 N.am    1  ZINC000981700465   -0.7100
     20 C20       -10.2308    0.6037   55.3581 C.2     1  ZINC000981700465    0.5600
     21 O21       -11.4313    0.7685   55.4489 O.2     1  ZINC000981700465   -0.5200
     22 C22        -9.6598   -0.0301   54.1470 C.ar    1  ZINC000981700465   -0.1400
     23 C23       -10.4812   -0.6583   53.2022 C.ar    1  ZINC000981700465   -0.0600
     24 C24        -9.8743   -1.2283   52.0949 C.ar    1  ZINC000981700465    0.0400
     25 N25        -8.5640   -1.1679   51.9578 N.ar    1  ZINC000981700465   -0.2200
     26 N26        -7.8061   -0.5942   52.8192 N.ar    1  ZINC000981700465   -0.2400
     27 C27        -8.2833   -0.0168   53.9047 C.ar    1  ZINC000981700465    0.0700
     28 C28       -10.4572    0.5467   58.5487 C.3     1  ZINC000981700465   -0.1200
     29 H29       -12.4762    2.5047   66.4306 H       1  ZINC000981700465    0.0600
     30 H30       -12.4037    3.6626   65.0807 H       1  ZINC000981700465    0.0600
     31 H31       -12.8234    1.9608   64.7717 H       1  ZINC000981700465    0.0500
     32 H32       -10.4755    2.4296   64.1265 H       1  ZINC000981700465    0.0600
     33 H33       -10.1283    2.9736   65.7854 H       1  ZINC000981700465    0.0600
     34 H34       -10.6922    0.7389   66.6583 H       1  ZINC000981700465    0.1000
     35 H35       -11.1106    0.1876   65.0184 H       1  ZINC000981700465    0.0800
     36 H36        -5.9958    0.1402   66.0247 H       1  ZINC000981700465    0.4500
     37 H37        -6.4173   -0.4704   63.5851 H       1  ZINC000981700465    0.1800
     38 H38        -7.5780   -0.3887   61.7172 H       1  ZINC000981700465    0.4000
     39 H39        -8.6582   -1.1656   59.7750 H       1  ZINC000981700465    0.0700
     40 H40       -10.1939   -1.1563   60.6747 H       1  ZINC000981700465    0.0700
     41 H41        -7.9142    2.0480   60.1939 H       1  ZINC000981700465    0.0700
     42 H42        -7.6435    0.7855   58.9476 H       1  ZINC000981700465    0.0700
     43 H43        -9.3360    3.3364   58.7389 H       1  ZINC000981700465    0.0800
     44 H44        -8.1035    2.7255   57.5911 H       1  ZINC000981700465    0.0700
     45 H45        -8.4607    0.8647   56.2871 H       1  ZINC000981700465    0.4000
     46 H46       -11.5526   -0.6974   53.3329 H       1  ZINC000981700465    0.1700
     47 H47       -10.4738   -1.7220   51.3444 H       1  ZINC000981700465    0.1800
     48 H48        -7.6132    0.4567   54.6070 H       1  ZINC000981700465    0.1700
     49 H49       -10.2659   -0.4458   58.1408 H       1  ZINC000981700465    0.0800
     50 H50       -11.5210    0.6683   58.7528 H       1  ZINC000981700465    0.0800
@<TRIPOS>BOND
     1     1     2    1
     2     1    29    1
     3     1    30    1
     4     1    31    1
     5     2     3    1
     6     2    32    1
     7     2    33    1
     8     3     4    1
     9     3    34    1
    10     3    35    1
    11     4     8    1
    12     4     5    2
    13     5     6    1
    14     6     7    1
    15     6    36    1
    16     7     8    2
    17     7    37    1
    18     8     9    1
    19     9    10    2
    20     9    11   am
    21    11    12    1
    22    11    38    1
    23    12    13    1
    24    12    39    1
    25    12    40    1
    26    13    14    1
    27    13    28    1
    28    13    15    1
    29    15    16    1
    30    15    41    1
    31    15    42    1
    32    16    17    1
    33    16    43    1
    34    16    44    1
    35    17    18    1
    36    17    19    1
    37    17    28    1
    38    19    20   am
    39    19    45    1
    40    20    21    2
    41    20    22    1
    42    22    27   ar
    43    22    23   ar
    44    23    24   ar
    45    23    46    1
    46    24    25   ar
    47    24    47    1
    48    25    26   ar
    49    26    27   ar
    50    27    48    1
    51    28    49    1
    52    28    50    1
@<TRIPOS>SUBSTRUCTURE
     1 ZINC000981700465        1 TEMP              0 ****  ****    0 ROOT


##########                                Name:     oleObject27.pdb
##########                DOCK_Rotatable_Bonds:                   9
##########                         Heavy_Atoms:                  35
##########                    Molecular_Weight:             513.466
##########                DOCK_Rotatable_Bonds:                   9
##########                       Formal_Charge:         0.000199873
##########                     HBond_Acceptors:                   8
##########                        HBond_Donors:                   1
##########                         Heavy_Atoms:                  35
##########                          Grid_Score:          -34.302120
##########                     Grid_vdw_energy:          -34.087727
##########                      Grid_es_energy:           -0.214394
##########           Internal_energy_repulsive:           16.900738

@<TRIPOS>MOLECULE
oleObject27.pdb
 65 68 1 0 0
SMALL
NO_CHARGES


@<TRIPOS>ATOM
      1 C          -3.0484    5.3615   52.0413 C.ar    1  UNL        -0.0620
      2 C          -3.8584    6.1274   52.8920 C.ar    1  UNL        -0.0590
      3 C          -5.2607    6.0003   52.8577 C.ar    1  UNL        -0.0456
      4 C          -5.8603    5.0833   51.9588 C.ar    1  UNL        -0.0187
      5 C          -5.0320    4.3271   51.1005 C.ar    1  UNL        -0.0565
      6 C          -3.6366    4.4627   51.1421 C.ar    1  UNL        -0.0619
      7 C          -7.3868    4.9164   51.8945 C.3     1  UNL         0.0921
      8 C          -7.9911    5.4973   50.6123 C.ar    1  UNL         0.0681
      9 C          -8.9656    6.5264   50.6362 C.ar    1  UNL        -0.0272
     10 C          -9.4756    6.9918   49.4095 C.ar    1  UNL        -0.0559
     11 C          -9.0135    6.4192   48.2155 C.ar    1  UNL        -0.0435
     12 C          -8.0592    5.3935   48.2869 C.ar    1  UNL         0.0272
     13 N          -7.5648    4.9416   49.4547 N.ar    1  UNL        -0.2587
     14 C          -9.4827    7.1294   51.9373 C.3     1  UNL        -0.0379
     15 N          -7.8188    3.5229   52.0759 N.am    1  UNL        -0.2865
     16 C          -9.1410    3.1301   52.1798 C.2     1  UNL         0.3014
     17 O         -10.0567    3.9344   52.1310 O.2     1  UNL        -0.2541
     18 N          -9.3502    1.7601   52.3486 N.am    1  UNL        -0.2833
     19 C          -8.2263    0.7862   52.4126 C.3     1  UNL         0.0284
     20 C          -8.6352   -0.6962   52.2343 C.3     1  UNL         0.0142
     21 N          -9.8148   -1.0576   53.0396 N.4     1  UNL        -0.2979
     22 C         -10.9534   -0.2042   52.6466 C.3     1  UNL         0.0142
     23 C         -10.6609    1.2978   52.8674 C.3     1  UNL         0.0284
     24 C          -9.5283   -1.1222   54.4930 C.3     1  UNL         0.0223
     25 C         -10.6070   -1.8797   55.2930 C.3     1  UNL         0.0661
     26 O         -10.5399   -1.4227   56.6552 O.3     1  UNL        -0.3432
     27 C         -11.4345   -1.8065   57.6357 C.ar    1  UNL         0.0937
     28 C         -12.7554   -2.1999   57.3313 C.ar    1  UNL        -0.0288
     29 C         -13.6332   -2.5831   58.3591 C.ar    1  UNL        -0.0408
     30 C         -13.1989   -2.5762   59.6940 C.ar    1  UNL         0.0422
     31 C         -11.8867   -2.1867   60.0047 C.ar    1  UNL        -0.0221
     32 C         -11.0066   -1.8031   58.9791 C.ar    1  UNL         0.0723
     33 CL         -9.3739   -1.3216   59.4011 Cl      1  UNL        -0.0814
     34 CL        -14.2952   -3.0544   60.9724 Cl      1  UNL        -0.0843
     35 C          -6.0953    6.8692   53.7928 C.3     1  UNL        -0.0394
     36 H          -1.9680    5.4690   52.0754 H       1  UNL         0.0623
     37 H          -3.3913    6.8261   53.5804 H       1  UNL         0.0626
     38 H          -5.4679    3.6323   50.3888 H       1  UNL         0.0627
     39 H          -3.0132    3.8729   50.4764 H       1  UNL         0.0623
     40 H          -7.8002    5.4683   52.7437 H       1  UNL         0.0625
     41 H         -10.2212    7.7814   49.3808 H       1  UNL         0.0627
     42 H          -9.3907    6.7583   47.2553 H       1  UNL         0.0639
     43 H          -7.6785    4.9189   47.3833 H       1  UNL         0.0840
     44 H          -9.8431    6.3488   52.6192 H       1  UNL         0.0280
     45 H         -10.3179    7.8186   51.7602 H       1  UNL         0.0280
     46 H          -8.6944    7.6931   52.4512 H       1  UNL         0.0280
     47 H          -7.1043    2.8151   52.1716 H       1  UNL         0.1521
     48 H          -7.7319    0.9040   53.3853 H       1  UNL         0.0484
     49 H          -7.4887    1.0176   51.6343 H       1  UNL         0.0484
     50 H          -7.7859   -1.3434   52.4881 H       1  UNL         0.0447
     51 H          -8.8641   -0.8635   51.1736 H       1  UNL         0.0447
     52 H         -11.8650   -0.4852   53.1867 H       1  UNL         0.0447
     53 H         -11.1581   -0.3575   51.5790 H       1  UNL         0.0447
     54 H         -10.6941    1.5134   53.9428 H       1  UNL         0.0484
     55 H         -11.4638    1.8758   52.3920 H       1  UNL         0.0484
     56 H          -9.4232   -0.1127   54.9101 H       1  UNL         0.0455
     57 H          -8.5727   -1.6402   54.6462 H       1  UNL         0.0455
     58 H         -10.4108   -2.9584   55.2423 H       1  UNL         0.0586
     59 H         -11.6008   -1.6733   54.8773 H       1  UNL         0.0586
     60 H         -13.1121   -2.2133   56.3067 H       1  UNL         0.0652
     61 H         -14.6489   -2.8850   58.1196 H       1  UNL         0.0639
     62 H         -11.5516   -2.1818   61.0381 H       1  UNL         0.0655
     63 H          -5.4741    7.5879   54.3416 H       1  UNL         0.0280
     64 H          -6.6205    6.2566   54.5362 H       1  UNL         0.0280
     65 H          -6.8425    7.4468   53.2347 H       1  UNL         0.0280
@<TRIPOS>BOND
     1     1     2   ar
     2     1     6   ar
     3     1    36    1
     4     2     3   ar
     5     2    37    1
     6     3     4   ar
     7     3    35    1
     8     4     5   ar
     9     4     7    1
    10     5     6   ar
    11     5    38    1
    12     6    39    1
    13     7     8    1
    14     7    15    1
    15     7    40    1
    16     8     9   ar
    17     8    13   ar
    18     9    10   ar
    19     9    14    1
    20    10    11   ar
    21    10    41    1
    22    11    12   ar
    23    11    42    1
    24    12    13   ar
    25    12    43    1
    26    14    44    1
    27    14    45    1
    28    14    46    1
    29    15    16   am
    30    15    47    1
    31    16    17    2
    32    16    18   am
    33    18    19    1
    34    18    23    1
    35    19    20    1
    36    19    48    1
    37    19    49    1
    38    20    21    1
    39    20    50    1
    40    20    51    1
    41    21    22    1
    42    21    24    1
    43    22    23    1
    44    22    52    1
    45    22    53    1
    46    23    54    1
    47    23    55    1
    48    24    25    1
    49    24    56    1
    50    24    57    1
    51    25    26    1
    52    25    58    1
    53    25    59    1
    54    26    27    1
    55    27    28   ar
    56    27    32   ar
    57    28    29   ar
    58    28    60    1
    59    29    30   ar
    60    29    61    1
    61    30    31   ar
    62    30    34    1
    63    31    32   ar
    64    31    62    1
    65    32    33    1
    66    35    63    1
    67    35    64    1
    68    35    65    1
@<TRIPOS>SUBSTRUCTURE
     1 UNL         1 TEMP              0 ****  ****    0 ROOT


##########                                Name:    ZINC000426805817
##########                DOCK_Rotatable_Bonds:                   6
##########                         Heavy_Atoms:                  26
##########                    Molecular_Weight:             412.286
##########                DOCK_Rotatable_Bonds:                   6
##########                       Formal_Charge:          -0.0100001
##########                     HBond_Acceptors:                   5
##########                        HBond_Donors:                   4
##########                         Heavy_Atoms:                  26
##########                          Grid_Score:          -34.216415
##########                     Grid_vdw_energy:          -33.447037
##########                      Grid_es_energy:           -0.769379
##########           Internal_energy_repulsive:            3.497363

@<TRIPOS>MOLECULE
ZINC000426805817
 44 47 1 0 0
SMALL
USER_CHARGES


@<TRIPOS>ATOM
      1 O1        -11.2997   -3.0232   59.5758 O.co2   1  ZINC000426805817   -0.6300
      2 C2        -10.9563   -1.9659   60.0766 C.2     1  ZINC000426805817    0.5000
      3 O3        -11.2261   -1.7270   61.2414 O.co2   1  ZINC000426805817   -0.6800
      4 C4        -10.1931   -0.9569   59.2578 C.3     1  ZINC000426805817   -0.0500
      5 H5        -10.7363   -0.0120   59.2471 H       1  ZINC000426805817    0.1300
      6 C6         -8.8089   -0.7425   59.8735 C.3     1  ZINC000426805817   -0.0500
      7 C7         -8.7580    0.6100   60.5362 C.2     1  ZINC000426805817   -0.1900
      8 C8         -8.5632    1.7906   59.9277 C.2     1  ZINC000426805817    0.0500
      9 N9         -8.5795    2.7998   60.8514 N.pl3   1  ZINC000426805817   -0.5900
     10 C10        -8.7906    2.2800   62.1095 C.ar    1  ZINC000426805817    0.1100
     11 C11        -8.8940    2.8493   63.3740 C.ar    1  ZINC000426805817   -0.1200
     12 C12        -9.1130    2.0479   64.4729 C.ar    1  ZINC000426805817   -0.0700
     13 C13        -9.2325    0.6713   64.3329 C.ar    1  ZINC000426805817   -0.1100
     14 Br14       -9.5330   -0.4062   65.8576 Br      1  ZINC000426805817   -0.0400
     15 C15        -9.1339    0.0867   63.0899 C.ar    1  ZINC000426805817   -0.0400
     16 C16        -8.9179    0.8863   61.9660 C.ar    1  ZINC000426805817   -0.1000
     17 N17       -10.0460   -1.4527   57.8828 N.4     1  ZINC000426805817   -0.4800
     18 H18        -9.0658   -1.5374   57.6588 H       1  ZINC000426805817    0.4000
     19 H19       -10.4888   -2.3556   57.8016 H       1  ZINC000426805817    0.4200
     20 C20       -10.6812   -0.5103   56.9519 C.3     1  ZINC000426805817    0.0400
     21 C21        -9.9464   -0.5314   55.6364 C.ar    1  ZINC000426805817   -0.1600
     22 C22        -8.8677    0.3211   55.4261 C.ar    1  ZINC000426805817    0.1100
     23 N23        -8.2464    1.2733   56.2027 N.pl3   1  ZINC000426805817   -0.5900
     24 C24        -7.2115    1.8376   55.5077 C.2     1  ZINC000426805817    0.0600
     25 C25        -7.1258    1.2864   54.2867 C.2     1  ZINC000426805817   -0.2000
     26 C26        -8.1929    0.2875   54.1918 C.ar    1  ZINC000426805817   -0.1100
     27 C27        -8.6093   -0.5959   53.1944 C.ar    1  ZINC000426805817   -0.0400
     28 C28        -9.6717   -1.4247   53.4224 C.ar    1  ZINC000426805817   -0.1500
     29 C29       -10.3373   -1.3991   54.6401 C.ar    1  ZINC000426805817   -0.0700
     30 H30        -8.6169   -1.5180   60.6149 H       1  ZINC000426805817    0.1200
     31 H31        -8.0517   -0.7924   59.0910 H       1  ZINC000426805817    0.0900
     32 H32        -8.4153    1.9239   58.8663 H       1  ZINC000426805817    0.1700
     33 H33        -8.4602    3.7413   60.6502 H       1  ZINC000426805817    0.4200
     34 H34        -8.8023    3.9186   63.4945 H       1  ZINC000426805817    0.1300
     35 H35        -9.1921    2.4945   65.4529 H       1  ZINC000426805817    0.1400
     36 H36        -9.2274   -0.9841   62.9845 H       1  ZINC000426805817    0.1400
     37 H37       -11.7196   -0.8011   56.7927 H       1  ZINC000426805817    0.1500
     38 H38       -10.6458    0.4949   57.3719 H       1  ZINC000426805817    0.1300
     39 H39        -8.5043    1.5095   57.1075 H       1  ZINC000426805817    0.4300
     40 H40        -6.5602    2.6118   55.8855 H       1  ZINC000426805817    0.1800
     41 H41        -6.4066    1.5330   53.5197 H       1  ZINC000426805817    0.1500
     42 H42        -8.0938   -0.6241   52.2457 H       1  ZINC000426805817    0.1300
     43 H43        -9.9935   -2.1080   52.6503 H       1  ZINC000426805817    0.1300
     44 H44       -11.1752   -2.0601   54.8053 H       1  ZINC000426805817    0.1300
@<TRIPOS>BOND
     1     1     2   ar
     2     2     3   ar
     3     2     4    1
     4     4     5    1
     5     4     6    1
     6     4    17    1
     7     6     7    1
     8     6    30    1
     9     6    31    1
    10     7    16    1
    11     7     8    2
    12     8     9    1
    13     8    32    1
    14     9    10    1
    15     9    33    1
    16    10    16   ar
    17    10    11   ar
    18    11    12   ar
    19    11    34    1
    20    12    13   ar
    21    12    35    1
    22    13    14    1
    23    13    15   ar
    24    15    16   ar
    25    15    36    1
    26    17    18    1
    27    17    19    1
    28    17    20    1
    29    20    21    1
    30    20    37    1
    31    20    38    1
    32    21    29   ar
    33    21    22   ar
    34    22    26   ar
    35    22    23    1
    36    23    24    1
    37    23    39    1
    38    24    25    2
    39    24    40    1
    40    25    26    1
    41    25    41    1
    42    26    27   ar
    43    27    28   ar
    44    27    42    1
    45    28    29   ar
    46    28    43    1
    47    29    44    1
@<TRIPOS>SUBSTRUCTURE
     1 ZINC000426805817        1 TEMP              0 ****  ****    0 ROOT


##########                                Name:    ZINC001596273020
##########                DOCK_Rotatable_Bonds:                  11
##########                         Heavy_Atoms:                  25
##########                    Molecular_Weight:             355.478
##########                DOCK_Rotatable_Bonds:                  11
##########                       Formal_Charge:          -0.0499996
##########                     HBond_Acceptors:                   7
##########                        HBond_Donors:                   2
##########                         Heavy_Atoms:                  25
##########                          Grid_Score:          -34.192810
##########                     Grid_vdw_energy:          -31.651569
##########                      Grid_es_energy:           -2.541240
##########           Internal_energy_repulsive:           23.590958

@<TRIPOS>MOLECULE
ZINC001596273020
 58 59 1 0 0
SMALL
USER_CHARGES


@<TRIPOS>ATOM
      1 C1         -8.7838   -0.1821   66.1850 C.3     1  ZINC001596273020   -0.1900
      2 C2         -8.4859    1.1554   65.5043 C.3     1  ZINC001596273020   -0.0200
      3 N3         -9.1680    1.2059   64.2042 N.4     1  ZINC001596273020   -0.3900
      4 H4        -10.1638    1.1218   64.3434 H       1  ZINC001596273020    0.4300
      5 C5         -8.8719    2.4850   63.5453 C.3     1  ZINC001596273020   -0.0100
      6 C6         -9.3619    3.6370   64.4247 C.3     1  ZINC001596273020   -0.1900
      7 C7         -8.6964    0.0997   63.3606 C.3     1  ZINC001596273020   -0.0100
      8 C8         -9.0307    0.3959   61.8972 C.3     1  ZINC001596273020    0.0300
      9 O9         -8.6908   -0.7352   61.0927 O.3     1  ZINC001596273020   -0.3900
     10 C10        -8.4122   -0.4152   59.7281 C.3     1  ZINC001596273020    0.0500
     11 C11        -9.7003    0.0369   59.0371 C.3     1  ZINC001596273020    0.1400
     12 N12        -9.5977   -0.2176   57.5980 N.am    1  ZINC001596273020   -0.7500
     13 C13       -10.6861   -0.0946   56.8127 C.2     1  ZINC001596273020    0.7200
     14 O14       -11.7535    0.2261   57.2988 O.2     1  ZINC001596273020   -0.6000
     15 N15       -10.5914   -0.3270   55.4885 N.am    1  ZINC001596273020   -0.6300
     16 C16       -11.6669   -0.2357   54.4704 C.3     1  ZINC001596273020    0.1100
     17 C17       -10.9654    0.4420   53.2581 C.3     1  ZINC001596273020   -0.0800
     18 H18       -11.3955    0.0690   52.3285 H       1  ZINC001596273020    0.1200
     19 C19       -11.2038    1.9346   53.3693 C.3     1  ZINC001596273020   -0.1000
     20 C20       -10.0787    2.7603   52.7612 C.3     1  ZINC001596273020   -0.1200
     21 C21        -8.7755    2.3931   53.4833 C.3     1  ZINC001596273020   -0.1200
     22 C22        -8.4238    0.9593   53.0997 C.3     1  ZINC001596273020   -0.0800
     23 C23        -9.5260   -0.0095   53.3721 C.3     1  ZINC001596273020   -0.1400
     24 C24        -9.3705   -1.1045   52.3485 C.2     1  ZINC001596273020    0.5000
     25 O25        -8.3150   -1.2367   51.7527 O.co2   1  ZINC001596273020   -0.6900
     26 O26       -10.3003   -1.8582   52.1159 O.co2   1  ZINC001596273020   -0.6900
     27 C27        -9.3872   -0.7257   54.7198 C.3     1  ZINC001596273020    0.1600
     28 H28        -9.8433   -0.2342   66.4353 H       1  ZINC001596273020    0.0800
     29 H29        -8.5296   -0.9984   65.5089 H       1  ZINC001596273020    0.0800
     30 H30        -8.1906   -0.2663   67.0956 H       1  ZINC001596273020    0.1000
     31 H31        -8.8425    1.9708   66.1337 H       1  ZINC001596273020    0.1300
     32 H32        -7.4108    1.2554   65.3547 H       1  ZINC001596273020    0.1300
     33 H33        -7.7963    2.5754   63.3939 H       1  ZINC001596273020    0.1300
     34 H34        -9.3789    2.5229   62.5811 H       1  ZINC001596273020    0.1300
     35 H35       -10.4499    3.6105   64.4855 H       1  ZINC001596273020    0.0800
     36 H36        -8.9396    3.5360   65.4244 H       1  ZINC001596273020    0.0800
     37 H37        -9.0453    4.5855   63.9907 H       1  ZINC001596273020    0.1000
     38 H38        -7.6175   -0.0081   63.4722 H       1  ZINC001596273020    0.1400
     39 H39        -9.1874   -0.8246   63.6655 H       1  ZINC001596273020    0.1400
     40 H40       -10.0968    0.6018   61.8025 H       1  ZINC001596273020    0.1000
     41 H41        -8.4619    1.2635   61.5629 H       1  ZINC001596273020    0.0700
     42 H42        -7.6764    0.3879   59.6862 H       1  ZINC001596273020    0.0700
     43 H43        -8.0180   -1.2961   59.2215 H       1  ZINC001596273020    0.0700
     44 H44       -10.5453   -0.5179   59.4449 H       1  ZINC001596273020    0.0900
     45 H45        -9.8493    1.1030   59.2079 H       1  ZINC001596273020    0.0700
     46 H46        -8.7465   -0.4745   57.2104 H       1  ZINC001596273020    0.3900
     47 H47       -12.0248   -1.2292   54.2002 H       1  ZINC001596273020    0.0700
     48 H48       -12.4874    0.3830   54.8337 H       1  ZINC001596273020    0.0600
     49 H49       -12.1353    2.1806   52.8595 H       1  ZINC001596273020    0.0500
     50 H50       -11.3024    2.1970   54.4226 H       1  ZINC001596273020    0.0400
     51 H51        -9.9878    2.5332   51.6990 H       1  ZINC001596273020    0.0700
     52 H52       -10.2874    3.8218   52.8949 H       1  ZINC001596273020    0.0500
     53 H53        -7.9772    3.0661   53.1704 H       1  ZINC001596273020    0.0600
     54 H54        -8.9179    2.4631   54.5617 H       1  ZINC001596273020    0.0500
     55 H55        -8.1851    0.9301   52.0365 H       1  ZINC001596273020    0.0600
     56 H56        -7.5418    0.6530   53.6623 H       1  ZINC001596273020    0.0600
     57 H57        -8.4809   -0.4010   55.2309 H       1  ZINC001596273020    0.0700
     58 H58        -9.3773   -1.8062   54.5765 H       1  ZINC001596273020    0.0700
@<TRIPOS>BOND
     1     1     2    1
     2     1    28    1
     3     1    29    1
     4     1    30    1
     5     2     3    1
     6     2    31    1
     7     2    32    1
     8     3     4    1
     9     3     5    1
    10     3     7    1
    11     5     6    1
    12     5    33    1
    13     5    34    1
    14     6    35    1
    15     6    36    1
    16     6    37    1
    17     7     8    1
    18     7    38    1
    19     7    39    1
    20     8     9    1
    21     8    40    1
    22     8    41    1
    23     9    10    1
    24    10    11    1
    25    10    42    1
    26    10    43    1
    27    11    12    1
    28    11    44    1
    29    11    45    1
    30    12    13   am
    31    12    46    1
    32    13    14    2
    33    13    15   am
    34    15    27    1
    35    15    16    1
    36    16    17    1
    37    16    47    1
    38    16    48    1
    39    17    18    1
    40    17    23    1
    41    17    19    1
    42    19    20    1
    43    19    49    1
    44    19    50    1
    45    20    21    1
    46    20    51    1
    47    20    52    1
    48    21    22    1
    49    21    53    1
    50    21    54    1
    51    22    23    1
    52    22    55    1
    53    22    56    1
    54    23    24    1
    55    23    27    1
    56    24    25   ar
    57    24    26   ar
    58    27    57    1
    59    27    58    1
@<TRIPOS>SUBSTRUCTURE
     1 ZINC001596273020        1 TEMP              0 ****  ****    0 ROOT


##########                                Name:    ZINC001461256440
##########                DOCK_Rotatable_Bonds:                  13
##########                         Heavy_Atoms:                  26
##########                    Molecular_Weight:             367.445
##########                DOCK_Rotatable_Bonds:                  13
##########                       Formal_Charge:        -6.37025e-07
##########                     HBond_Acceptors:                   8
##########                        HBond_Donors:                   1
##########                         Heavy_Atoms:                  26
##########                          Grid_Score:          -34.157909
##########                     Grid_vdw_energy:          -33.440338
##########                      Grid_es_energy:           -0.717570
##########           Internal_energy_repulsive:           38.160007

@<TRIPOS>MOLECULE
ZINC001461256440
 55 55 1 0 0
SMALL
USER_CHARGES


@<TRIPOS>ATOM
      1 C1         -7.9817    0.1745   64.1789 C.3     1  ZINC001461256440   -0.1500
      2 C2         -8.9113    0.6459   63.0588 C.3     1  ZINC001461256440    0.0600
      3 O3         -9.2558   -0.4804   62.2096 O.3     1  ZINC001461256440   -0.3600
      4 C4         -9.7391   -0.1983   60.9896 C.2     1  ZINC001461256440    0.4400
      5 O5        -10.2165    0.8887   60.7654 O.2     1  ZINC001461256440   -0.4800
      6 C6         -9.6865   -1.2376   59.8995 C.3     1  ZINC001461256440    0.1400
      7 N7        -11.0247   -1.7972   59.6933 N.pl3   1  ZINC001461256440   -0.3800
      8 N8        -11.9885   -2.0160   60.6858 N.2     1  ZINC001461256440   -0.2800
      9 C9        -13.0534   -2.5255   60.1214 C.2     1  ZINC001461256440    0.1000
     10 C10       -14.3273   -2.9114   60.8279 C.3     1  ZINC001461256440   -0.0700
     11 C11       -12.8077   -2.6497   58.7513 C.2     1  ZINC001461256440   -0.2700
     12 C12       -11.5501   -2.1884   58.5099 C.2     1  ZINC001461256440    0.3100
     13 N13       -10.9154   -2.1365   57.2690 N.am    1  ZINC001461256440   -0.6500
     14 C14       -11.3613   -1.2911   56.3188 C.2     1  ZINC001461256440    0.5200
     15 O15       -12.3137   -0.5744   56.5432 O.2     1  ZINC001461256440   -0.5000
     16 C16       -10.6767   -1.2364   54.9775 C.3     1  ZINC001461256440   -0.1300
     17 C17       -11.7135   -0.9619   53.8865 C.3     1  ZINC001461256440   -0.1100
     18 C18       -11.8713    0.5487   53.7013 C.3     1  ZINC001461256440   -0.1100
     19 C19       -11.2349    0.9692   52.3750 C.3     1  ZINC001461256440   -0.1200
     20 C20        -9.7459    1.1143   52.5559 C.2     1  ZINC001461256440    0.4600
     21 O21        -9.0022    0.2465   52.1638 O.2     1  ZINC001461256440   -0.5000
     22 O22        -9.2457    2.2077   53.1527 O.3     1  ZINC001461256440   -0.3500
     23 C23        -7.7997    2.3337   53.1928 C.3     1  ZINC001461256440    0.1200
     24 C24        -7.2445    2.2917   51.7676 C.3     1  ZINC001461256440   -0.1800
     25 C25        -7.4216    3.6632   53.8485 C.3     1  ZINC001461256440   -0.1400
     26 C26        -7.2095    1.1787   54.0043 C.3     1  ZINC001461256440   -0.1800
     27 H27        -7.7230    1.0200   64.8164 H       1  ZINC001461256440    0.0800
     28 H28        -8.4859   -0.5876   64.7729 H       1  ZINC001461256440    0.0700
     29 H29        -7.0737   -0.2447   63.7453 H       1  ZINC001461256440    0.0700
     30 H30        -9.8192    1.0651   63.4924 H       1  ZINC001461256440    0.0700
     31 H31        -8.4070    1.4080   62.4647 H       1  ZINC001461256440    0.0700
     32 H32        -9.3389   -0.7769   58.9748 H       1  ZINC001461256440    0.1300
     33 H33        -9.0006   -2.0335   60.1891 H       1  ZINC001461256440    0.1400
     34 H34       -15.0057   -2.0584   60.8457 H       1  ZINC001461256440    0.0800
     35 H35       -14.7991   -3.7399   60.2997 H       1  ZINC001461256440    0.0800
     36 H36       -14.0986   -3.2150   61.8496 H       1  ZINC001461256440    0.0700
     37 H37       -13.4948   -3.0390   58.0145 H       1  ZINC001461256440    0.1800
     38 H38       -10.1530   -2.7089   57.0900 H       1  ZINC001461256440    0.4100
     39 H39        -9.9333   -0.4392   54.9812 H       1  ZINC001461256440    0.1000
     40 H40       -10.1859   -2.1896   54.7808 H       1  ZINC001461256440    0.1000
     41 H41       -11.3825   -1.4101   52.9497 H       1  ZINC001461256440    0.0800
     42 H42       -12.6707   -1.3941   54.1779 H       1  ZINC001461256440    0.0800
     43 H43       -12.9307    0.8050   53.6934 H       1  ZINC001461256440    0.0700
     44 H44       -11.3777    1.0689   54.5221 H       1  ZINC001461256440    0.0700
     45 H45       -11.4369    0.2109   51.6185 H       1  ZINC001461256440    0.1100
     46 H46       -11.6567    1.9222   52.0557 H       1  ZINC001461256440    0.1100
     47 H47        -7.6651    3.1145   51.1895 H       1  ZINC001461256440    0.0600
     48 H48        -6.1590    2.3863   51.7977 H       1  ZINC001461256440    0.0700
     49 H49        -7.5140    1.3445   51.3004 H       1  ZINC001461256440    0.0800
     50 H50        -7.8171    3.6932   54.8637 H       1  ZINC001461256440    0.0700
     51 H51        -6.3362    3.7578   53.8785 H       1  ZINC001461256440    0.0800
     52 H52        -7.8422    4.4861   53.2703 H       1  ZINC001461256440    0.0700
     53 H53        -7.4788    0.2314   53.5370 H       1  ZINC001461256440    0.0800
     54 H54        -6.1240    1.2733   54.0343 H       1  ZINC001461256440    0.0700
     55 H55        -7.6050    1.2086   55.0195 H       1  ZINC001461256440    0.0600
@<TRIPOS>BOND
     1     1     2    1
     2     1    27    1
     3     1    28    1
     4     1    29    1
     5     2     3    1
     6     2    30    1
     7     2    31    1
     8     3     4    1
     9     4     5    2
    10     4     6    1
    11     6     7    1
    12     6    32    1
    13     6    33    1
    14     7    12    1
    15     7     8    1
    16     8     9    2
    17     9    10    1
    18     9    11    1
    19    10    34    1
    20    10    35    1
    21    10    36    1
    22    11    12    2
    23    11    37    1
    24    12    13    1
    25    13    14   am
    26    13    38    1
    27    14    15    2
    28    14    16    1
    29    16    17    1
    30    16    39    1
    31    16    40    1
    32    17    18    1
    33    17    41    1
    34    17    42    1
    35    18    19    1
    36    18    43    1
    37    18    44    1
    38    19    20    1
    39    19    45    1
    40    19    46    1
    41    20    21    2
    42    20    22    1
    43    22    23    1
    44    23    24    1
    45    23    25    1
    46    23    26    1
    47    24    47    1
    48    24    48    1
    49    24    49    1
    50    25    50    1
    51    25    51    1
    52    25    52    1
    53    26    53    1
    54    26    54    1
    55    26    55    1
@<TRIPOS>SUBSTRUCTURE
     1 ZINC001461256440        1 TEMP              0 ****  ****    0 ROOT


##########                                Name:    ZINC001456607258
##########                DOCK_Rotatable_Bonds:                   9
##########                         Heavy_Atoms:                  25
##########                    Molecular_Weight:             339.437
##########                DOCK_Rotatable_Bonds:                   9
##########                       Formal_Charge:          -0.0200009
##########                     HBond_Acceptors:                   5
##########                        HBond_Donors:                   2
##########                         Heavy_Atoms:                  25
##########                          Grid_Score:          -34.128941
##########                     Grid_vdw_energy:          -30.936356
##########                      Grid_es_energy:           -3.192585
##########           Internal_energy_repulsive:           16.218624

@<TRIPOS>MOLECULE
ZINC001456607258
 50 52 1 0 0
SMALL
USER_CHARGES


@<TRIPOS>ATOM
      1 C1          3.2668   -0.5797   52.8888 C.3     1  ZINC001456607258   -0.1600
      2 C2          3.1491    0.8154   52.2717 C.3     1  ZINC001456607258   -0.1100
      3 C3          1.9085    0.8750   51.3783 C.3     1  ZINC001456607258   -0.1000
      4 H4          1.1436    0.2066   51.7737 H       1  ZINC001456607258    0.0900
      5 C5          2.2807    0.4412   49.9591 C.3     1  ZINC001456607258   -0.0700
      6 C6          1.1225   -0.2976   49.3397 C.ar    1  ZINC001456607258   -0.0800
      7 C7          1.1914   -1.6668   49.1623 C.ar    1  ZINC001456607258   -0.1200
      8 C8          0.1289   -2.3445   48.5942 C.ar    1  ZINC001456607258   -0.1200
      9 C9         -1.0026   -1.6531   48.2037 C.ar    1  ZINC001456607258   -0.1200
     10 C10        -1.0719   -0.2841   48.3819 C.ar    1  ZINC001456607258   -0.1200
     11 C11        -0.0112    0.3930   48.9541 C.ar    1  ZINC001456607258   -0.1200
     12 C12         1.3774    2.2851   51.3496 C.2     1  ZINC001456607258    0.5200
     13 O13         1.7335    3.0495   50.4781 O.2     1  ZINC001456607258   -0.5300
     14 N14         0.5067    2.6966   52.2925 N.am    1  ZINC001456607258   -0.7300
     15 C15        -0.0096    4.0673   52.2646 C.3     1  ZINC001456607258    0.1300
     16 C16        -0.1022    4.6065   53.6933 C.3     1  ZINC001456607258   -0.1400
     17 C17        -1.2395    5.6232   53.8997 C.3     1  ZINC001456607258    0.1100
     18 N18        -1.4962    4.9260   55.1748 N.am    1  ZINC001456607258   -0.6500
     19 C19        -2.0632    5.2774   56.3460 C.2     1  ZINC001456607258    0.6100
     20 O20        -2.4989    6.4028   56.4972 O.2     1  ZINC001456607258   -0.5400
     21 C21        -2.1553    4.2986   57.4424 C.2     1  ZINC001456607258   -0.2300
     22 C22        -1.9817    2.9449   57.3526 C.2     1  ZINC001456607258    0.0400
     23 N23        -2.1495    2.4127   58.5781 N.pl3   1  ZINC001456607258   -0.5500
     24 C24        -2.4327    3.3923   59.4849 C.2     1  ZINC001456607258   -0.0200
     25 C25        -2.4452    4.5792   58.8527 C.2     1  ZINC001456607258   -0.1400
     26 C26        -0.8826    3.6896   54.6526 C.3     1  ZINC001456607258    0.1100
     27 H27         4.1978   -0.6509   53.4512 H       1  ZINC001456607258    0.0600
     28 H28         2.4239   -0.7533   53.5579 H       1  ZINC001456607258    0.0600
     29 H29         3.2625   -1.3287   52.0971 H       1  ZINC001456607258    0.0600
     30 H30         3.0614    1.5575   53.0653 H       1  ZINC001456607258    0.0800
     31 H31         4.0370    1.0248   51.6751 H       1  ZINC001456607258    0.0700
     32 H32         2.5128    1.3213   49.3594 H       1  ZINC001456607258    0.0800
     33 H33         3.1514   -0.2135   49.9958 H       1  ZINC001456607258    0.0900
     34 H34         2.0755   -2.2070   49.4674 H       1  ZINC001456607258    0.1200
     35 H35         0.1831   -3.4142   48.4550 H       1  ZINC001456607258    0.1200
     36 H36        -1.8323   -2.1825   47.7592 H       1  ZINC001456607258    0.1200
     37 H37        -1.9558    0.2562   48.0766 H       1  ZINC001456607258    0.1200
     38 H38        -0.0654    1.4627   49.0933 H       1  ZINC001456607258    0.1200
     39 H39         0.2218    2.0851   52.9895 H       1  ZINC001456607258    0.4000
     40 H40         0.6626    4.6969   51.6815 H       1  ZINC001456607258    0.0700
     41 H41        -0.9997    4.0735   51.8090 H       1  ZINC001456607258    0.0800
     42 H42         0.8598    4.9357   54.0865 H       1  ZINC001456607258    0.1100
     43 H43        -0.8943    6.6499   54.0221 H       1  ZINC001456607258    0.0800
     44 H44        -2.0496    5.5289   53.1766 H       1  ZINC001456607258    0.0900
     45 H45        -1.7498    2.3961   56.4518 H       1  ZINC001456607258    0.1700
     46 H46        -2.0795    1.4679   58.7864 H       1  ZINC001456607258    0.4200
     47 H47        -2.6124    3.2398   60.5388 H       1  ZINC001456607258    0.1700
     48 H48        -2.6379    5.5458   59.2942 H       1  ZINC001456607258    0.1500
     49 H49        -1.5879    3.0273   54.1506 H       1  ZINC001456607258    0.0900
     50 H50        -0.2524    3.1724   55.3761 H       1  ZINC001456607258    0.0900
@<TRIPOS>BOND
     1     1     2    1
     2     1    27    1
     3     1    28    1
     4     1    29    1
     5     2     3    1
     6     2    30    1
     7     2    31    1
     8     3     4    1
     9     3     5    1
    10     3    12    1
    11     5     6    1
    12     5    32    1
    13     5    33    1
    14     6    11   ar
    15     6     7   ar
    16     7     8   ar
    17     7    34    1
    18     8     9   ar
    19     8    35    1
    20     9    10   ar
    21     9    36    1
    22    10    11   ar
    23    10    37    1
    24    11    38    1
    25    12    13    2
    26    12    14   am
    27    14    15    1
    28    14    39    1
    29    15    16    1
    30    15    40    1
    31    15    41    1
    32    16    26    1
    33    16    17    1
    34    16    42    1
    35    17    18    1
    36    17    43    1
    37    17    44    1
    38    18    19   am
    39    18    26    1
    40    19    20    2
    41    19    21    1
    42    21    25    1
    43    21    22    2
    44    22    23    1
    45    22    45    1
    46    23    24    1
    47    23    46    1
    48    24    25    2
    49    24    47    1
    50    25    48    1
    51    26    49    1
    52    26    50    1
@<TRIPOS>SUBSTRUCTURE
     1 ZINC001456607258        1 TEMP              0 ****  ****    0 ROOT


##########                                Name:    ZINC000807524472
##########                DOCK_Rotatable_Bonds:                   9
##########                         Heavy_Atoms:                  28
##########                    Molecular_Weight:             410.534
##########                DOCK_Rotatable_Bonds:                   9
##########                       Formal_Charge:           0.0200006
##########                     HBond_Acceptors:                   8
##########                        HBond_Donors:                   0
##########                         Heavy_Atoms:                  28
##########                          Grid_Score:          -34.008827
##########                     Grid_vdw_energy:          -32.993118
##########                      Grid_es_energy:           -1.015710
##########           Internal_energy_repulsive:           14.476828

@<TRIPOS>MOLECULE
ZINC000807524472
 58 60 1 0 0
SMALL
USER_CHARGES


@<TRIPOS>ATOM
      1 C1         -8.6966    0.1789   64.5099 C.3     1  ZINC000807524472   -0.1500
      2 C2         -9.0884    0.2774   63.0341 C.3     1  ZINC000807524472    0.0600
      3 O3         -9.5974   -0.9822   62.5914 O.3     1  ZINC000807524472   -0.3800
      4 C4         -9.9367   -1.0167   61.2036 C.3     1  ZINC000807524472    0.0600
      5 C5         -8.6718   -0.8262   60.3643 C.3     1  ZINC000807524472    0.0700
      6 O6         -8.9724   -1.0916   58.9688 O.3     1  ZINC000807524472   -0.3500
      7 C7         -9.7405   -0.1898   58.3260 C.2     1  ZINC000807524472    0.5000
      8 O8         -9.8901    0.9226   58.7918 O.2     1  ZINC000807524472   -0.4600
      9 C9        -10.3985   -0.5525   57.0592 C.ar    1  ZINC000807524472   -0.1200
     10 C10        -9.7386   -0.3570   55.8428 C.ar    1  ZINC000807524472    0.0400
     11 C11       -10.3596   -0.6989   54.6615 C.ar    1  ZINC000807524472   -0.7000
     12 S12        -9.5249   -0.4519   53.1295 S.o2    1  ZINC000807524472    2.6900
     13 O13        -8.3809   -1.2944   53.1555 O.2     1  ZINC000807524472   -0.9500
     14 O14       -10.5182   -0.5210   52.1157 O.2     1  ZINC000807524472   -0.9500
     15 N15        -8.9594    1.1045   53.1247 N.am    1  ZINC000807524472   -0.9900
     16 C16        -7.5216    1.3782   52.9970 C.3     1  ZINC000807524472    0.1200
     17 C17        -7.3062    2.3515   51.8337 C.3     1  ZINC000807524472   -0.1400
     18 C18        -8.1666    3.5984   52.0512 C.3     1  ZINC000807524472   -0.1200
     19 C19        -9.6442    3.2017   52.0819 C.3     1  ZINC000807524472   -0.1400
     20 C20        -9.8867    2.2383   53.2419 C.3     1  ZINC000807524472    0.1200
     21 C21       -11.6370   -1.2362   54.6716 C.ar    1  ZINC000807524472    0.0200
     22 C22       -12.3023   -1.4352   55.8640 C.ar    1  ZINC000807524472   -0.1800
     23 C23       -11.6909   -1.1023   57.0662 C.ar    1  ZINC000807524472    0.2000
     24 N24       -12.3579   -1.3018   58.2673 N.3     1  ZINC000807524472   -0.4800
     25 C25       -13.6605   -0.5880   58.2777 C.3     1  ZINC000807524472    0.0400
     26 C26       -14.4568   -1.3193   59.3875 C.3     1  ZINC000807524472   -0.1200
     27 C27       -14.0276   -2.7935   59.2065 C.3     1  ZINC000807524472   -0.1300
     28 C28       -12.6802   -2.7319   58.4634 C.3     1  ZINC000807524472    0.0400
     29 H29        -7.9297   -0.5861   64.6319 H       1  ZINC000807524472    0.0600
     30 H30        -8.3084    1.1397   64.8477 H       1  ZINC000807524472    0.0700
     31 H31        -9.5726   -0.0873   65.1014 H       1  ZINC000807524472    0.0700
     32 H32        -9.8554    1.0423   62.9122 H       1  ZINC000807524472    0.0500
     33 H33        -8.2124    0.5436   62.4427 H       1  ZINC000807524472    0.0500
     34 H34       -10.3902   -1.9786   60.9643 H       1  ZINC000807524472    0.0600
     35 H35       -10.6434   -0.2167   60.9824 H       1  ZINC000807524472    0.0700
     36 H36        -8.3160    0.1986   60.4708 H       1  ZINC000807524472    0.0900
     37 H37        -7.9008   -1.5161   60.7074 H       1  ZINC000807524472    0.0800
     38 H38        -8.7432    0.0617   55.8289 H       1  ZINC000807524472    0.1600
     39 H39        -7.1512    1.8243   53.9200 H       1  ZINC000807524472    0.0800
     40 H40        -6.9888    0.4482   52.7987 H       1  ZINC000807524472    0.0900
     41 H41        -6.2555    2.6378   51.7887 H       1  ZINC000807524472    0.0800
     42 H42        -7.5932    1.8701   50.8988 H       1  ZINC000807524472    0.0700
     43 H43        -7.8962    4.0654   52.9983 H       1  ZINC000807524472    0.0700
     44 H44        -7.9965    4.3033   51.2374 H       1  ZINC000807524472    0.0700
     45 H45       -10.2576    4.0931   52.2134 H       1  ZINC000807524472    0.0800
     46 H46        -9.9091    2.7123   51.1446 H       1  ZINC000807524472    0.0700
     47 H47       -10.9143    1.8766   53.2078 H       1  ZINC000807524472    0.0900
     48 H48        -9.7090    2.7519   54.1867 H       1  ZINC000807524472    0.0800
     49 H49       -12.1150   -1.5009   53.7399 H       1  ZINC000807524472    0.1500
     50 H50       -13.2977   -1.8541   55.8629 H       1  ZINC000807524472    0.1400
     51 H51       -13.5215    0.4626   58.5326 H       1  ZINC000807524472    0.0900
     52 H52       -14.1618   -0.6883   57.3150 H       1  ZINC000807524472    0.0500
     53 H53       -14.1703   -0.9525   60.3732 H       1  ZINC000807524472    0.0800
     54 H54       -15.5295   -1.2077   59.2300 H       1  ZINC000807524472    0.0800
     55 H55       -13.9025   -3.2730   60.1774 H       1  ZINC000807524472    0.0800
     56 H56       -14.7644   -3.3315   58.6101 H       1  ZINC000807524472    0.0700
     57 H57       -12.7661   -3.2291   57.4971 H       1  ZINC000807524472    0.0500
     58 H58       -11.9041   -3.2088   59.0617 H       1  ZINC000807524472    0.0900
@<TRIPOS>BOND
     1     1     2    1
     2     1    29    1
     3     1    30    1
     4     1    31    1
     5     2     3    1
     6     2    32    1
     7     2    33    1
     8     3     4    1
     9     4     5    1
    10     4    34    1
    11     4    35    1
    12     5     6    1
    13     5    36    1
    14     5    37    1
    15     6     7    1
    16     7     8    2
    17     7     9    1
    18     9    23   ar
    19     9    10   ar
    20    10    11   ar
    21    10    38    1
    22    11    12    1
    23    11    21   ar
    24    12    13    2
    25    12    14    2
    26    12    15   am
    27    15    20    1
    28    15    16    1
    29    16    17    1
    30    16    39    1
    31    16    40    1
    32    17    18    1
    33    17    41    1
    34    17    42    1
    35    18    19    1
    36    18    43    1
    37    18    44    1
    38    19    20    1
    39    19    45    1
    40    19    46    1
    41    20    47    1
    42    20    48    1
    43    21    22   ar
    44    21    49    1
    45    22    23   ar
    46    22    50    1
    47    23    24    1
    48    24    28    1
    49    24    25    1
    50    25    26    1
    51    25    51    1
    52    25    52    1
    53    26    27    1
    54    26    53    1
    55    26    54    1
    56    27    28    1
    57    27    55    1
    58    27    56    1
    59    28    57    1
    60    28    58    1
@<TRIPOS>SUBSTRUCTURE
     1 ZINC000807524472        1 TEMP              0 ****  ****    0 ROOT


##########                                Name:    ZINC000465392830
##########                DOCK_Rotatable_Bonds:                   8
##########                         Heavy_Atoms:                  29
##########                    Molecular_Weight:             419.588
##########                DOCK_Rotatable_Bonds:                   8
##########                       Formal_Charge:           0.0199996
##########                     HBond_Acceptors:                   7
##########                        HBond_Donors:                   0
##########                         Heavy_Atoms:                  29
##########                          Grid_Score:          -33.992142
##########                     Grid_vdw_energy:          -31.422577
##########                      Grid_es_energy:           -2.569566
##########           Internal_energy_repulsive:           25.289341

@<TRIPOS>MOLECULE
ZINC000465392830
 62 64 1 0 0
SMALL
USER_CHARGES


@<TRIPOS>ATOM
      1 C1         -9.7420    4.6073   48.9383 C.3     1  ZINC000465392830    0.0400
      2 O2         -8.4325    4.0403   49.2070 O.3     1  ZINC000465392830   -0.3600
      3 C3         -8.0654    3.9375   50.4940 C.2     1  ZINC000465392830    0.4600
      4 O4         -8.8138    4.3080   51.3672 O.2     1  ZINC000465392830   -0.4900
      5 C5         -6.7197    3.3598   50.8498 C.3     1  ZINC000465392830    0.1500
      6 H6         -6.4263    2.6188   50.1062 H       1  ZINC000465392830    0.1100
      7 C7         -5.6657    4.4852   50.9137 C.3     1  ZINC000465392830   -0.1100
      8 C8         -4.7836    4.0670   52.1197 C.3     1  ZINC000465392830   -0.0900
      9 H9         -4.0380    3.3299   51.8213 H       1  ZINC000465392830    0.1000
     10 C10        -4.1186    5.2863   52.7617 C.3     1  ZINC000465392830   -0.0800
     11 C11        -3.2592    4.8349   53.9442 C.3     1  ZINC000465392830   -0.1200
     12 C12        -2.5943    6.0541   54.5863 C.3     1  ZINC000465392830   -0.1200
     13 C13        -1.7114    6.7568   53.5529 C.3     1  ZINC000465392830   -0.1200
     14 C14        -2.5708    7.2081   52.3704 C.3     1  ZINC000465392830   -0.1200
     15 C15        -3.2357    5.9889   51.7284 C.3     1  ZINC000465392830   -0.1200
     16 C16        -5.8336    3.4410   53.0709 C.3     1  ZINC000465392830    0.1000
     17 N17        -6.7790    2.7368   52.1802 N.am    1  ZINC000465392830   -0.6100
     18 C18        -7.5653    1.7000   52.5313 C.2     1  ZINC000465392830    0.5400
     19 O19        -8.3090    1.1991   51.7147 O.2     1  ZINC000465392830   -0.5300
     20 C20        -7.5201    1.1630   53.9387 C.3     1  ZINC000465392830   -0.1300
     21 C21        -8.5274    1.9207   54.8062 C.3     1  ZINC000465392830   -0.0600
     22 C22        -8.5851    1.2918   56.1745 C.ar    1  ZINC000465392830   -0.2000
     23 C23        -7.7779    1.7559   57.2016 C.ar    1  ZINC000465392830    0.2000
     24 C24        -6.8269    2.9009   56.9660 C.3     1  ZINC000465392830   -0.1100
     25 N25        -7.8529    1.1818   58.3907 N.ar    1  ZINC000465392830   -0.5000
     26 C26        -8.6873    0.1745   58.6053 C.ar    1  ZINC000465392830    0.3000
     27 S27        -8.7547   -0.5608   60.2052 S.3     1  ZINC000465392830    0.0000
     28 C28       -10.0801   -1.7650   59.9421 C.3     1  ZINC000465392830   -0.1400
     29 N29        -9.4727   -0.2923   57.6450 N.ar    1  ZINC000465392830   -0.5300
     30 C30        -9.4505    0.2407   56.4347 C.ar    1  ZINC000465392830    0.2000
     31 C31       -10.3466   -0.2961   55.3485 C.3     1  ZINC000465392830   -0.1100
     32 H32       -10.5079    3.9941   49.4132 H       1  ZINC000465392830    0.0600
     33 H33        -9.7882    5.6204   49.3379 H       1  ZINC000465392830    0.0600
     34 H34        -9.9129    4.6331   47.8621 H       1  ZINC000465392830    0.1000
     35 H35        -5.0769    4.5145   49.9969 H       1  ZINC000465392830    0.1000
     36 H36        -6.1408    5.4485   51.0991 H       1  ZINC000465392830    0.0800
     37 H37        -4.8863    5.9760   53.1126 H       1  ZINC000465392830    0.0800
     38 H38        -3.8882    4.3344   54.6803 H       1  ZINC000465392830    0.0600
     39 H39        -2.4916    4.1452   53.5932 H       1  ZINC000465392830    0.0700
     40 H40        -3.3619    6.7439   54.9373 H       1  ZINC000465392830    0.0600
     41 H41        -1.9820    5.7326   55.4288 H       1  ZINC000465392830    0.0600
     42 H42        -1.2377    7.6254   54.0103 H       1  ZINC000465392830    0.0600
     43 H43        -0.9437    6.0671   53.2019 H       1  ZINC000465392830    0.0600
     44 H44        -3.3384    7.8979   52.7214 H       1  ZINC000465392830    0.0600
     45 H45        -1.9418    7.7087   51.6342 H       1  ZINC000465392830    0.0600
     46 H46        -2.4681    5.2992   51.3773 H       1  ZINC000465392830    0.0700
     47 H47        -3.8480    6.3105   50.8858 H       1  ZINC000465392830    0.0600
     48 H48        -5.3568    2.7345   53.7502 H       1  ZINC000465392830    0.0900
     49 H49        -6.3488    4.2202   53.6328 H       1  ZINC000465392830    0.0800
     50 H50        -7.7724    0.1026   53.9313 H       1  ZINC000465392830    0.1000
     51 H51        -6.5179    1.2953   54.3461 H       1  ZINC000465392830    0.1000
     52 H52        -8.2176    2.9617   54.8975 H       1  ZINC000465392830    0.0900
     53 H53        -9.5131    1.8742   54.3431 H       1  ZINC000465392830    0.0900
     54 H54        -7.3306    3.8424   57.1847 H       1  ZINC000465392830    0.0900
     55 H55        -5.9597    2.7929   57.6177 H       1  ZINC000465392830    0.0900
     56 H56        -6.5023    2.8955   55.9256 H       1  ZINC000465392830    0.0900
     57 H57       -10.9934   -1.2433   59.6555 H       1  ZINC000465392830    0.0900
     58 H58        -9.7920   -2.4551   59.1491 H       1  ZINC000465392830    0.0900
     59 H59       -10.2534   -2.3216   60.8631 H       1  ZINC000465392830    0.1100
     60 H60       -11.2970    0.2373   55.3650 H       1  ZINC000465392830    0.0900
     61 H61        -9.8675   -0.1551   54.3796 H       1  ZINC000465392830    0.0900
     62 H62       -10.5233   -1.3587   55.5152 H       1  ZINC000465392830    0.0800
@<TRIPOS>BOND
     1     1     2    1
     2     1    32    1
     3     1    33    1
     4     1    34    1
     5     2     3    1
     6     3     4    2
     7     3     5    1
     8     5     6    1
     9     5    17    1
    10     5     7    1
    11     7     8    1
    12     7    35    1
    13     7    36    1
    14     8     9    1
    15     8    10    1
    16     8    16    1
    17    10    15    1
    18    10    11    1
    19    10    37    1
    20    11    12    1
    21    11    38    1
    22    11    39    1
    23    12    13    1
    24    12    40    1
    25    12    41    1
    26    13    14    1
    27    13    42    1
    28    13    43    1
    29    14    15    1
    30    14    44    1
    31    14    45    1
    32    15    46    1
    33    15    47    1
    34    16    17    1
    35    16    48    1
    36    16    49    1
    37    17    18   am
    38    18    19    2
    39    18    20    1
    40    20    21    1
    41    20    50    1
    42    20    51    1
    43    21    22    1
    44    21    52    1
    45    21    53    1
    46    22    30   ar
    47    22    23   ar
    48    23    24    1
    49    23    25   ar
    50    24    54    1
    51    24    55    1
    52    24    56    1
    53    25    26   ar
    54    26    27    1
    55    26    29   ar
    56    27    28    1
    57    28    57    1
    58    28    58    1
    59    28    59    1
    60    29    30   ar
    61    30    31    1
    62    31    60    1
    63    31    61    1
    64    31    62    1
@<TRIPOS>SUBSTRUCTURE
     1 ZINC000465392830        1 TEMP              0 ****  ****    0 ROOT


##########                                Name:    ZINC001065334255
##########                DOCK_Rotatable_Bonds:                   7
##########                         Heavy_Atoms:                  23
##########                    Molecular_Weight:             346.448
##########                DOCK_Rotatable_Bonds:                   7
##########                       Formal_Charge:        -5.81145e-07
##########                     HBond_Acceptors:                   8
##########                        HBond_Donors:                   1
##########                         Heavy_Atoms:                  23
##########                          Grid_Score:          -33.854923
##########                     Grid_vdw_energy:          -33.094242
##########                      Grid_es_energy:           -0.760679
##########           Internal_energy_repulsive:           21.505783

@<TRIPOS>MOLECULE
ZINC001065334255
 49 50 1 0 0
SMALL
USER_CHARGES


@<TRIPOS>ATOM
      1 C1        -15.5774   -2.4687   56.3504 C.3     1  ZINC001065334255   -0.1500
      2 C2        -14.4609   -2.2685   57.3772 C.3     1  ZINC001065334255   -0.0800
      3 C3        -14.0328   -0.7996   57.3853 C.3     1  ZINC001065334255   -0.1500
      4 C4        -14.9694   -2.6591   58.7664 C.3     1  ZINC001065334255   -0.1400
      5 C5        -13.8694   -2.4632   59.7775 C.2     1  ZINC001065334255    0.5100
      6 O6        -14.1433   -2.1789   60.9243 O.2     1  ZINC001065334255   -0.5300
      7 N7        -12.5810   -2.6037   59.4075 N.am    1  ZINC001065334255   -0.7300
      8 C8        -11.5117   -2.4150   60.3909 C.3     1  ZINC001065334255    0.1300
      9 C9        -10.9738   -0.9860   60.2913 C.3     1  ZINC001065334255    0.0700
     10 H10       -11.7604   -0.2813   60.5613 H       1  ZINC001065334255    0.0700
     11 C11        -9.7863   -0.8183   61.2461 C.3     1  ZINC001065334255    0.0800
     12 N12        -9.1726    0.4957   60.9971 N.am    1  ZINC001065334255   -0.6100
     13 C13        -8.9253    1.3492   62.0104 C.2     1  ZINC001065334255    0.5400
     14 O14        -8.4182    2.4277   61.7849 O.2     1  ZINC001065334255   -0.5200
     15 C15        -9.2786    0.9635   63.4237 C.3     1  ZINC001065334255   -0.1100
     16 H16       -10.2851    0.5465   63.4560 H       1  ZINC001065334255    0.1200
     17 C17        -9.1880    2.1934   64.3440 C.3     1  ZINC001065334255   -0.1000
     18 C18        -9.2154    1.7171   65.8099 C.3     1  ZINC001065334255   -0.5900
     19 S19        -8.5057    0.0315   65.7762 S.o2    1  ZINC001065334255    2.3900
     20 O20        -7.2417    0.0396   66.4254 O.2     1  ZINC001065334255   -0.9300
     21 O21        -9.4983   -0.9053   66.1714 O.2     1  ZINC001065334255   -0.9300
     22 C22        -8.2574   -0.0713   63.9627 C.3     1  ZINC001065334255   -0.5900
     23 C23        -8.8364    0.8502   59.6090 C.3     1  ZINC001065334255    0.0600
     24 C24       -10.0702    0.6012   58.7340 C.3     1  ZINC001065334255    0.0500
     25 O25       -10.5425   -0.7303   58.9526 O.3     1  ZINC001065334255   -0.3700
     26 H26       -15.2152   -2.1904   55.3608 H       1  ZINC001065334255    0.0600
     27 H27       -15.8824   -3.5152   56.3447 H       1  ZINC001065334255    0.0500
     28 H28       -16.4301   -1.8431   56.6143 H       1  ZINC001065334255    0.0600
     29 H29       -13.6082   -2.8940   57.1133 H       1  ZINC001065334255    0.0800
     30 H30       -14.8856   -0.1740   57.6491 H       1  ZINC001065334255    0.0500
     31 H31       -13.2374   -0.6570   58.1167 H       1  ZINC001065334255    0.0700
     32 H32       -13.6705   -0.5214   56.3956 H       1  ZINC001065334255    0.0500
     33 H33       -15.8216   -2.0329   59.0307 H       1  ZINC001065334255    0.0900
     34 H34       -15.2753   -3.7052   58.7604 H       1  ZINC001065334255    0.0900
     35 H35       -12.3619   -2.8298   58.4899 H       1  ZINC001065334255    0.4000
     36 H36       -11.9051   -2.5861   61.3928 H       1  ZINC001065334255    0.0900
     37 H37       -10.7058   -3.1212   60.1913 H       1  ZINC001065334255    0.0800
     38 H38       -10.1343   -0.8714   62.2778 H       1  ZINC001065334255    0.1100
     39 H39        -9.0548   -1.6056   61.0639 H       1  ZINC001065334255    0.0900
     40 H40        -8.2584    2.7286   64.1499 H       1  ZINC001065334255    0.1000
     41 H41       -10.0346    2.8540   64.1573 H       1  ZINC001065334255    0.1000
     42 H42        -8.6056    2.3721   66.4322 H       1  ZINC001065334255    0.1500
     43 H43       -10.2404    1.6889   66.1796 H       1  ZINC001065334255    0.1400
     44 H44        -8.4890   -1.0717   63.5967 H       1  ZINC001065334255    0.1400
     45 H45        -7.2403    0.2141   63.6947 H       1  ZINC001065334255    0.1500
     46 H46        -8.5553    1.9020   59.5566 H       1  ZINC001065334255    0.1000
     47 H47        -8.0092    0.2309   59.2621 H       1  ZINC001065334255    0.0900
     48 H48       -10.8531    1.3123   58.9979 H       1  ZINC001065334255    0.0600
     49 H49        -9.8033    0.7251   57.6845 H       1  ZINC001065334255    0.1100
@<TRIPOS>BOND
     1     1     2    1
     2     1    26    1
     3     1    27    1
     4     1    28    1
     5     2     3    1
     6     2     4    1
     7     2    29    1
     8     3    30    1
     9     3    31    1
    10     3    32    1
    11     4     5    1
    12     4    33    1
    13     4    34    1
    14     5     6    2
    15     5     7   am
    16     7     8    1
    17     7    35    1
    18     8     9    1
    19     8    36    1
    20     8    37    1
    21     9    10    1
    22     9    25    1
    23     9    11    1
    24    11    12    1
    25    11    38    1
    26    11    39    1
    27    12    13   am
    28    12    23    1
    29    13    14    2
    30    13    15    1
    31    15    16    1
    32    15    22    1
    33    15    17    1
    34    17    18    1
    35    17    40    1
    36    17    41    1
    37    18    19    1
    38    18    42    1
    39    18    43    1
    40    19    20    2
    41    19    21    2
    42    19    22    1
    43    22    44    1
    44    22    45    1
    45    23    24    1
    46    23    46    1
    47    23    47    1
    48    24    25    1
    49    24    48    1
    50    24    49    1
@<TRIPOS>SUBSTRUCTURE
     1 ZINC001065334255        1 TEMP              0 ****  ****    0 ROOT


##########                                Name:    ZINC001085711660
##########                DOCK_Rotatable_Bonds:                   8
##########                         Heavy_Atoms:                  25
##########                    Molecular_Weight:             347.414
##########                DOCK_Rotatable_Bonds:                   8
##########                       Formal_Charge:         -0.00999993
##########                     HBond_Acceptors:                   7
##########                        HBond_Donors:                   0
##########                         Heavy_Atoms:                  25
##########                          Grid_Score:          -33.842377
##########                     Grid_vdw_energy:          -32.054272
##########                      Grid_es_energy:           -1.788107
##########           Internal_energy_repulsive:           20.224539

@<TRIPOS>MOLECULE
ZINC001085711660
 50 52 1 0 0
SMALL
USER_CHARGES


@<TRIPOS>ATOM
      1 C1         -2.9230    3.9982   57.9304 C.3     1  ZINC001085711660    0.0300
      2 O2         -2.6530    4.2747   56.5547 O.3     1  ZINC001085711660   -0.3800
      3 C3         -1.5949    3.4901   56.0008 C.3     1  ZINC001085711660    0.1400
      4 C4         -1.3966    3.8635   54.5544 C.2     1  ZINC001085711660    0.0100
      5 C5         -2.3286    3.7636   53.5810 C.2     1  ZINC001085711660   -0.1900
      6 C6         -1.7338    4.2134   52.3918 C.2     1  ZINC001085711660   -0.1200
      7 C7         -0.4530    4.5694   52.7038 C.2     1  ZINC001085711660   -0.0700
      8 C8          0.5462    5.0982   51.7696 C.2     1  ZINC001085711660    0.6000
      9 O9          0.7818    6.2919   51.7421 O.2     1  ZINC001085711660   -0.5200
     10 N10         1.2035    4.2623   50.9416 N.am    1  ZINC001085711660   -0.6000
     11 C11         2.2018    4.7905   50.0084 C.3     1  ZINC001085711660    0.0700
     12 C12         0.9198    2.8253   50.9747 C.3     1  ZINC001085711660    0.1300
     13 C13         1.5667    2.2064   52.2154 C.3     1  ZINC001085711660    0.0000
     14 H14         0.8368    1.7749   52.9004 H       1  ZINC001085711660    0.1000
     15 C15         2.5787    3.1328   52.9041 C.3     1  ZINC001085711660   -0.1400
     16 C16         3.3772    1.8354   53.0932 C.3     1  ZINC001085711660    0.0100
     17 N17         2.6873    1.2997   51.9034 N.3     1  ZINC001085711660   -0.4500
     18 C18         2.3028   -0.1037   52.1053 C.3     1  ZINC001085711660    0.1500
     19 H19         1.5868   -0.1701   52.9245 H       1  ZINC001085711660    0.1000
     20 C20         3.5454   -0.9291   52.4456 C.3     1  ZINC001085711660   -0.1900
     21 C21         1.6743   -0.6386   50.8444 C.2     1  ZINC001085711660    0.2000
     22 N22         2.2795   -0.7922   49.7012 N.2     1  ZINC001085711660   -0.4700
     23 C23         1.4025   -1.2924   48.8128 C.2     1  ZINC001085711660   -0.0400
     24 C24         0.2263   -1.4459   49.4432 C.2     1  ZINC001085711660   -0.0500
     25 C25        -1.0490   -1.9777   48.8417 C.3     1  ZINC001085711660   -0.0700
     26 O26         0.4027   -1.0399   50.7160 O.3     1  ZINC001085711660   -0.2000
     27 O27        -0.2695    4.3543   54.0229 O.3     1  ZINC001085711660   -0.1500
     28 H28        -3.2065    2.9517   58.0418 H       1  ZINC001085711660    0.0500
     29 H29        -2.0302    4.1978   58.5232 H       1  ZINC001085711660    0.0500
     30 H30        -3.7380    4.6342   58.2758 H       1  ZINC001085711660    0.0900
     31 H31        -0.6749    3.6784   56.5541 H       1  ZINC001085711660    0.0900
     32 H32        -1.8513    2.4330   56.0713 H       1  ZINC001085711660    0.0700
     33 H33        -3.3409    3.4051   53.6964 H       1  ZINC001085711660    0.1600
     34 H34        -2.1991    4.2674   51.4187 H       1  ZINC001085711660    0.1600
     35 H35         3.1580    4.8962   50.5208 H       1  ZINC001085711660    0.0600
     36 H36         2.3132    4.1044   49.1689 H       1  ZINC001085711660    0.0900
     37 H37         1.8766    5.7640   49.6414 H       1  ZINC001085711660    0.0800
     38 H38        -0.1583    2.6686   51.0105 H       1  ZINC001085711660    0.0900
     39 H39         1.3261    2.3540   50.0798 H       1  ZINC001085711660    0.0900
     40 H40         3.0501    3.8538   52.2362 H       1  ZINC001085711660    0.1000
     41 H41         2.2188    3.5749   53.8332 H       1  ZINC001085711660    0.0800
     42 H42         4.4507    1.9620   52.9531 H       1  ZINC001085711660    0.0900
     43 H43         3.1311    1.3042   54.0126 H       1  ZINC001085711660    0.0800
     44 H44         4.3045   -0.7758   51.6787 H       1  ZINC001085711660    0.0800
     45 H45         3.9370   -0.6141   53.4128 H       1  ZINC001085711660    0.0800
     46 H46         3.2795   -1.9853   52.4878 H       1  ZINC001085711660    0.0700
     47 H47         1.6070   -1.5279   47.7788 H       1  ZINC001085711660    0.1800
     48 H48        -1.0865   -3.0597   48.9676 H       1  ZINC001085711660    0.0800
     49 H49        -1.9040   -1.5238   49.3428 H       1  ZINC001085711660    0.0800
     50 H50        -1.0790   -1.7342   47.7797 H       1  ZINC001085711660    0.0900
@<TRIPOS>BOND
     1     1     2    1
     2     1    28    1
     3     1    29    1
     4     1    30    1
     5     2     3    1
     6     3     4    1
     7     3    31    1
     8     3    32    1
     9     4    27    1
    10     4     5    2
    11     5     6    1
    12     5    33    1
    13     6     7    2
    14     6    34    1
    15     7     8    1
    16     7    27    1
    17     8     9    2
    18     8    10   am
    19    10    11    1
    20    10    12    1
    21    11    35    1
    22    11    36    1
    23    11    37    1
    24    12    13    1
    25    12    38    1
    26    12    39    1
    27    13    14    1
    28    13    17    1
    29    13    15    1
    30    15    16    1
    31    15    40    1
    32    15    41    1
    33    16    17    1
    34    16    42    1
    35    16    43    1
    36    17    18    1
    37    18    19    1
    38    18    20    1
    39    18    21    1
    40    20    44    1
    41    20    45    1
    42    20    46    1
    43    21    26    1
    44    21    22    2
    45    22    23    1
    46    23    24    2
    47    23    47    1
    48    24    25    1
    49    24    26    1
    50    25    48    1
    51    25    49    1
    52    25    50    1
@<TRIPOS>SUBSTRUCTURE
     1 ZINC001085711660        1 TEMP              0 ****  ****    0 ROOT


##########                                Name:    ZINC001340305486
##########                DOCK_Rotatable_Bonds:                   8
##########                         Heavy_Atoms:                  27
##########                    Molecular_Weight:             378.431
##########                DOCK_Rotatable_Bonds:                   8
##########                       Formal_Charge:          0.00999955
##########                     HBond_Acceptors:                  10
##########                        HBond_Donors:                   2
##########                         Heavy_Atoms:                  27
##########                          Grid_Score:          -33.822590
##########                     Grid_vdw_energy:          -31.816444
##########                      Grid_es_energy:           -2.006144
##########           Internal_energy_repulsive:           10.271667

@<TRIPOS>MOLECULE
ZINC001340305486
 53 55 1 0 0
SMALL
USER_CHARGES


@<TRIPOS>ATOM
      1 C1         -8.3375   -0.9532   52.3529 C.3     1  ZINC001340305486    0.0900
      2 N2         -9.5733   -1.0224   53.1365 N.am    1  ZINC001340305486   -0.7300
      3 C3         -9.6013   -0.5403   54.3948 C.2     1  ZINC001340305486    0.5200
      4 O4         -8.6029   -0.0505   54.8789 O.2     1  ZINC001340305486   -0.5100
      5 C5        -10.8730   -0.6099   55.2003 C.3     1  ZINC001340305486    0.0600
      6 H6        -10.9509    0.2730   55.8346 H       1  ZINC001340305486    0.0900
      7 C7        -10.8570   -1.8688   56.0748 C.3     1  ZINC001340305486    0.0900
      8 N8        -12.1787   -2.0127   56.7055 N.am    1  ZINC001340305486   -0.5800
      9 C9        -12.2961   -2.2068   58.0340 C.2     1  ZINC001340305486    0.5100
     10 O10       -13.3950   -2.3238   58.5354 O.2     1  ZINC001340305486   -0.5200
     11 C11       -11.0729   -2.2783   58.8898 C.2     1  ZINC001340305486    0.5200
     12 O12       -10.4669   -3.3243   58.9959 O.2     1  ZINC001340305486   -0.5000
     13 N13       -10.6429   -1.1811   59.5437 N.am    1  ZINC001340305486   -0.6900
     14 C14        -9.4448   -1.2516   60.3839 C.3     1  ZINC001340305486    0.1200
     15 C15        -9.1583    0.1279   60.9802 C.3     1  ZINC001340305486   -0.0400
     16 C16       -10.1249    0.4000   62.1040 C.2     1  ZINC001340305486    0.1700
     17 N17       -11.4179    0.2118   62.0781 N.2     1  ZINC001340305486   -0.2800
     18 N18       -11.9275    0.5438   63.2129 N.2     1  ZINC001340305486   -0.2900
     19 C19       -10.9833    0.9527   64.0116 C.2     1  ZINC001340305486    0.1900
     20 C20       -11.1329    1.4086   65.4398 C.3     1  ZINC001340305486   -0.0400
     21 C21       -10.3463    2.7082   65.6357 C.3     1  ZINC001340305486   -0.1200
     22 C22        -8.9072    2.3812   66.0225 C.3     1  ZINC001340305486   -0.1300
     23 C23        -8.4497    1.0918   65.3422 C.3     1  ZINC001340305486   -0.1400
     24 C24        -8.4940    1.2659   63.8215 C.3     1  ZINC001340305486    0.1000
     25 N25        -9.8166    0.8789   63.3295 N.pl3   1  ZINC001340305486   -0.4600
     26 C26       -13.3685   -1.9389   55.8427 C.3     1  ZINC001340305486    0.0200
     27 C27       -13.2621   -0.6766   54.9795 C.3     1  ZINC001340305486    0.0500
     28 O28       -11.9955   -0.6637   54.3167 O.3     1  ZINC001340305486   -0.3500
     29 H29        -8.0350    0.0882   52.2426 H       1  ZINC001340305486    0.0600
     30 H30        -7.5510   -1.5077   52.8649 H       1  ZINC001340305486    0.0600
     31 H31        -8.5069   -1.3885   51.3680 H       1  ZINC001340305486    0.0800
     32 H32       -10.3714   -1.4152   52.7498 H       1  ZINC001340305486    0.4000
     33 H33       -10.6479   -2.7423   55.4571 H       1  ZINC001340305486    0.0900
     34 H34       -10.0915   -1.7713   56.8447 H       1  ZINC001340305486    0.1100
     35 H35       -11.1266   -0.3447   59.4579 H       1  ZINC001340305486    0.4200
     36 H36        -9.6072   -1.9688   61.1887 H       1  ZINC001340305486    0.0900
     37 H37        -8.5954   -1.5698   59.7796 H       1  ZINC001340305486    0.0800
     38 H38        -8.1384    0.1531   61.3640 H       1  ZINC001340305486    0.0900
     39 H39        -9.2750    0.8888   60.2084 H       1  ZINC001340305486    0.1100
     40 H40       -12.1863    1.5837   65.6582 H       1  ZINC001340305486    0.1000
     41 H41       -10.7432    0.6421   66.1098 H       1  ZINC001340305486    0.0900
     42 H42       -10.3519    3.2792   64.7073 H       1  ZINC001340305486    0.0600
     43 H43       -10.8100    3.2975   66.4269 H       1  ZINC001340305486    0.0800
     44 H44        -8.2571    3.2003   65.7151 H       1  ZINC001340305486    0.0700
     45 H45        -8.8442    2.2592   67.1040 H       1  ZINC001340305486    0.0800
     46 H46        -7.4302    0.8608   65.6511 H       1  ZINC001340305486    0.0900
     47 H47        -9.1097    0.2745   65.6330 H       1  ZINC001340305486    0.0800
     48 H48        -8.2987    2.3081   63.5690 H       1  ZINC001340305486    0.0900
     49 H49        -7.7367    0.6316   63.3607 H       1  ZINC001340305486    0.1000
     50 H50       -13.4122   -2.8194   55.2017 H       1  ZINC001340305486    0.0800
     51 H51       -14.2661   -1.8878   56.4589 H       1  ZINC001340305486    0.1700
     52 H52       -14.0611   -0.6742   54.2381 H       1  ZINC001340305486    0.1200
     53 H53       -13.3496    0.2062   55.6131 H       1  ZINC001340305486    0.0600
@<TRIPOS>BOND
     1     1     2    1
     2     1    29    1
     3     1    30    1
     4     1    31    1
     5     2     3   am
     6     2    32    1
     7     3     4    2
     8     3     5    1
     9     5     6    1
    10     5    28    1
    11     5     7    1
    12     7     8    1
    13     7    33    1
    14     7    34    1
    15     8     9   am
    16     8    26    1
    17     9    10    2
    18     9    11    1
    19    11    12    2
    20    11    13   am
    21    13    14    1
    22    13    35    1
    23    14    15    1
    24    14    36    1
    25    14    37    1
    26    15    16    1
    27    15    38    1
    28    15    39    1
    29    16    25    1
    30    16    17    2
    31    17    18    1
    32    18    19    2
    33    19    25    1
    34    19    20    1
    35    20    21    1
    36    20    40    1
    37    20    41    1
    38    21    22    1
    39    21    42    1
    40    21    43    1
    41    22    23    1
    42    22    44    1
    43    22    45    1
    44    23    24    1
    45    23    46    1
    46    23    47    1
    47    24    25    1
    48    24    48    1
    49    24    49    1
    50    26    27    1
    51    26    50    1
    52    26    51    1
    53    27    28    1
    54    27    52    1
    55    27    53    1
@<TRIPOS>SUBSTRUCTURE
     1 ZINC001340305486        1 TEMP              0 ****  ****    0 ROOT


##########                                Name:    ZINC000027473870
##########                DOCK_Rotatable_Bonds:                  10
##########                         Heavy_Atoms:                  31
##########                    Molecular_Weight:             422.502
##########                DOCK_Rotatable_Bonds:                  10
##########                       Formal_Charge:        -7.45058e-08
##########                     HBond_Acceptors:                   7
##########                        HBond_Donors:                   1
##########                         Heavy_Atoms:                  31
##########                          Grid_Score:          -33.730915
##########                     Grid_vdw_energy:          -32.895756
##########                      Grid_es_energy:           -0.835159
##########           Internal_energy_repulsive:           17.091455

@<TRIPOS>MOLECULE
ZINC000027473870
 58 60 1 0 0
SMALL
USER_CHARGES


@<TRIPOS>ATOM
      1 C1        -10.6099    1.6549   57.5095 C.3     1  ZINC000027473870   -0.1400
      2 C2         -9.5125    0.5907   57.5725 C.3     1  ZINC000027473870   -0.0800
      3 C3        -10.1392   -0.7665   57.7627 C.2     1  ZINC000027473870    0.1700
      4 C4        -10.5324   -1.6330   56.7622 C.2     1  ZINC000027473870   -0.2900
      5 C5        -10.4173   -1.4036   55.3107 C.2     1  ZINC000027473870    0.6000
      6 O6         -9.7712   -2.1709   54.6231 O.2     1  ZINC000027473870   -0.5400
      7 N7        -11.0280   -0.3434   54.7454 N.am    1  ZINC000027473870   -0.7200
      8 C8        -10.9150   -0.1164   53.3025 C.3     1  ZINC000027473870    0.1600
      9 C9         -9.8508    0.9175   53.0385 C.ar    1  ZINC000027473870   -0.0900
     10 C10       -10.1949    2.1297   52.4670 C.ar    1  ZINC000027473870   -0.1100
     11 C11        -9.2256    3.0803   52.2223 C.ar    1  ZINC000027473870   -0.1100
     12 C12        -7.8953    2.8171   52.5529 C.ar    1  ZINC000027473870   -0.1200
     13 C13        -6.8512    3.8314   52.2939 C.2     1  ZINC000027473870    0.5600
     14 O14        -6.4092    4.4963   53.2104 O.2     1  ZINC000027473870   -0.5300
     15 N15        -6.3896    4.0188   51.0416 N.am    1  ZINC000027473870   -0.6100
     16 C16        -6.9225    3.2174   49.9370 C.3     1  ZINC000027473870    0.1100
     17 C17        -7.8914    4.0667   49.1119 C.3     1  ZINC000027473870   -0.1700
     18 C18        -5.3551    5.0239   50.7850 C.3     1  ZINC000027473870    0.0900
     19 C19        -3.9738    4.3938   50.9743 C.3     1  ZINC000027473870   -0.1800
     20 C20        -7.5550    1.5925   53.1296 C.ar    1  ZINC000027473870   -0.0700
     21 C21        -8.5349    0.6525   53.3738 C.ar    1  ZINC000027473870   -0.1000
     22 C22       -11.0655   -2.7814   57.3902 C.2     1  ZINC000027473870    0.0900
     23 N23       -10.9930   -2.6070   58.6813 N.2     1  ZINC000027473870   -0.2800
     24 N24       -10.4133   -1.3596   58.9386 N.pl3   1  ZINC000027473870   -0.3100
     25 C25       -10.1684   -0.8158   60.2076 C.ar    1  ZINC000027473870    0.1300
     26 C26        -8.9428   -1.0206   60.8268 C.ar    1  ZINC000027473870   -0.0900
     27 C27        -8.7032   -0.4837   62.0765 C.ar    1  ZINC000027473870   -0.1300
     28 C28        -9.6847    0.2584   62.7120 C.ar    1  ZINC000027473870    0.1100
     29 F29        -9.4485    0.7832   63.9342 F       1  ZINC000027473870   -0.1300
     30 C30       -10.9079    0.4638   62.0958 C.ar    1  ZINC000027473870   -0.1400
     31 C31       -11.1492   -0.0671   60.8439 C.ar    1  ZINC000027473870   -0.0700
     32 H32       -10.1546    2.6439   57.4602 H       1  ZINC000027473870    0.0700
     33 H33       -11.2230    1.4926   56.6231 H       1  ZINC000027473870    0.0700
     34 H34       -11.2341    1.5863   58.4006 H       1  ZINC000027473870    0.0500
     35 H35        -8.9428    0.6008   56.6432 H       1  ZINC000027473870    0.1200
     36 H36        -8.8470    0.8041   58.4090 H       1  ZINC000027473870    0.0800
     37 H37       -11.5424    0.2694   55.2939 H       1  ZINC000027473870    0.4000
     38 H38       -10.6456   -1.0495   52.8079 H       1  ZINC000027473870    0.0800
     39 H39       -11.8700    0.2379   52.9146 H       1  ZINC000027473870    0.0800
     40 H40       -11.2246    2.3320   52.2116 H       1  ZINC000027473870    0.1300
     41 H41        -9.4953    4.0258   51.7755 H       1  ZINC000027473870    0.1500
     42 H42        -6.1020    2.8824   49.3024 H       1  ZINC000027473870    0.0800
     43 H43        -7.4490    2.3512   50.3376 H       1  ZINC000027473870    0.0800
     44 H44        -8.2878    3.4705   48.2900 H       1  ZINC000027473870    0.0700
     45 H45        -8.7119    4.4017   49.7465 H       1  ZINC000027473870    0.0600
     46 H46        -7.3647    4.9330   48.7113 H       1  ZINC000027473870    0.0600
     47 H47        -5.4502    5.3903   49.7629 H       1  ZINC000027473870    0.0800
     48 H48        -5.4743    5.8540   51.4812 H       1  ZINC000027473870    0.0900
     49 H49        -3.2216    5.1799   51.0388 H       1  ZINC000027473870    0.0700
     50 H50        -3.9651    3.8063   51.8924 H       1  ZINC000027473870    0.0700
     51 H51        -3.7505    3.7460   50.1264 H       1  ZINC000027473870    0.0600
     52 H52        -6.5274    1.3826   53.3874 H       1  ZINC000027473870    0.1300
     53 H53        -8.2731   -0.2953   53.8203 H       1  ZINC000027473870    0.1300
     54 H54       -11.4639   -3.6512   56.8889 H       1  ZINC000027473870    0.1900
     55 H55        -8.1772   -1.5996   60.3318 H       1  ZINC000027473870    0.1500
     56 H56        -7.7500   -0.6431   62.5587 H       1  ZINC000027473870    0.1500
     57 H57       -11.6722    1.0425   62.5931 H       1  ZINC000027473870    0.1500
     58 H58       -12.1031    0.0936   60.3636 H       1  ZINC000027473870    0.1400
@<TRIPOS>BOND
     1     1     2    1
     2     1    32    1
     3     1    33    1
     4     1    34    1
     5     2     3    1
     6     2    35    1
     7     2    36    1
     8     3    24    1
     9     3     4    2
    10     4     5    1
    11     4    22    1
    12     5     6    2
    13     5     7   am
    14     7     8    1
    15     7    37    1
    16     8     9    1
    17     8    38    1
    18     8    39    1
    19     9    21   ar
    20     9    10   ar
    21    10    11   ar
    22    10    40    1
    23    11    12   ar
    24    11    41    1
    25    12    13    1
    26    12    20   ar
    27    13    14    2
    28    13    15   am
    29    15    16    1
    30    15    18    1
    31    16    17    1
    32    16    42    1
    33    16    43    1
    34    17    44    1
    35    17    45    1
    36    17    46    1
    37    18    19    1
    38    18    47    1
    39    18    48    1
    40    19    49    1
    41    19    50    1
    42    19    51    1
    43    20    21   ar
    44    20    52    1
    45    21    53    1
    46    22    23    2
    47    22    54    1
    48    23    24    1
    49    24    25    1
    50    25    31   ar
    51    25    26   ar
    52    26    27   ar
    53    26    55    1
    54    27    28   ar
    55    27    56    1
    56    28    29    1
    57    28    30   ar
    58    30    31   ar
    59    30    57    1
    60    31    58    1
@<TRIPOS>SUBSTRUCTURE
     1 ZINC000027473870        1 TEMP              0 ****  ****    0 ROOT


##########                                Name:    ZINC000623695407
##########                DOCK_Rotatable_Bonds:                  10
##########                         Heavy_Atoms:                  27
##########                    Molecular_Weight:             368.479
##########                DOCK_Rotatable_Bonds:                  10
##########                       Formal_Charge:           0.0299989
##########                     HBond_Acceptors:                   6
##########                        HBond_Donors:                   2
##########                         Heavy_Atoms:                  27
##########                          Grid_Score:          -33.625992
##########                     Grid_vdw_energy:          -31.582201
##########                      Grid_es_energy:           -2.043790
##########           Internal_energy_repulsive:            9.378524

@<TRIPOS>MOLECULE
ZINC000623695407
 55 57 1 0 0
SMALL
USER_CHARGES


@<TRIPOS>ATOM
      1 C1         -8.1686    6.3250   48.5988 C.3     1  ZINC000623695407    0.0300
      2 O2         -6.8866    5.8730   49.0396 O.3     1  ZINC000623695407   -0.3200
      3 C3         -6.8657    4.9825   50.0660 C.ar    1  ZINC000623695407    0.1300
      4 C4         -6.9378    3.6215   49.8066 C.ar    1  ZINC000623695407   -0.2100
      5 C5         -6.9160    2.7183   50.8517 C.ar    1  ZINC000623695407   -0.0600
      6 C6         -6.8228    3.1697   52.1553 C.ar    1  ZINC000623695407   -0.1100
      7 C7         -6.7997    2.1822   53.2935 C.3     1  ZINC000623695407    0.0600
      8 N8         -8.1084    2.1736   53.9608 N.3     1  ZINC000623695407   -0.4600
      9 C9         -9.0393    1.2497   53.2864 C.3     1  ZINC000623695407    0.0000
     10 C10        -9.5134    0.8016   54.6760 C.3     1  ZINC000623695407   -0.1300
     11 C11        -8.1100    1.2482   55.1091 C.3     1  ZINC000623695407    0.0100
     12 H12        -7.3607    0.4602   55.0328 H       1  ZINC000623695407    0.0900
     13 C13        -8.0872    1.9570   56.4648 C.3     1  ZINC000623695407    0.1600
     14 N14        -8.7977    1.1426   57.4538 N.am    1  ZINC000623695407   -0.7400
     15 C15        -8.6431    1.3928   58.7691 C.2     1  ZINC000623695407    0.7100
     16 O16        -7.9128    2.2935   59.1349 O.2     1  ZINC000623695407   -0.5900
     17 N17        -9.2980    0.6445   59.6788 N.am    1  ZINC000623695407   -0.7400
     18 C18        -9.1285    0.9154   61.1086 C.3     1  ZINC000623695407    0.1700
     19 H19        -8.1256    1.3026   61.2887 H       1  ZINC000623695407    0.0900
     20 C20       -10.1628    1.9495   61.5579 C.3     1  ZINC000623695407   -0.1600
     21 C21        -9.3250   -0.3794   61.8997 C.3     1  ZINC000623695407   -0.0900
     22 C22        -9.0511   -0.1229   63.3592 C.ar    1  ZINC000623695407   -0.0300
     23 C23       -10.0794    0.2159   64.2253 C.ar    1  ZINC000623695407   -0.1700
     24 C24        -9.7902    0.4439   65.5574 C.ar    1  ZINC000623695407    0.1000
     25 N25        -8.5543    0.3430   66.0062 N.ar    1  ZINC000623695407   -0.4900
     26 C26        -7.5519    0.0229   65.2115 C.ar    1  ZINC000623695407    0.1000
     27 C27        -7.7657   -0.2255   63.8689 C.ar    1  ZINC000623695407   -0.1700
     28 C28        -6.7504    4.5256   52.4163 C.ar    1  ZINC000623695407   -0.0700
     29 C29        -6.7666    5.4326   51.3745 C.ar    1  ZINC000623695407   -0.1500
     30 H30        -8.0425    7.0301   47.7772 H       1  ZINC000623695407    0.1000
     31 H31        -8.7573    5.4728   48.2592 H       1  ZINC000623695407    0.0600
     32 H32        -8.6839    6.8169   49.4239 H       1  ZINC000623695407    0.0600
     33 H33        -7.0113    3.2685   48.7887 H       1  ZINC000623695407    0.1300
     34 H34        -6.9720    1.6587   50.6503 H       1  ZINC000623695407    0.1200
     35 H35        -6.5827    1.1867   52.9064 H       1  ZINC000623695407    0.0600
     36 H36        -6.0292    2.4701   54.0087 H       1  ZINC000623695407    0.0700
     37 H37        -9.8109    1.7568   52.7071 H       1  ZINC000623695407    0.0900
     38 H38        -8.5381    0.4622   52.7237 H       1  ZINC000623695407    0.0700
     39 H39       -10.3213    1.4061   55.0884 H       1  ZINC000623695407    0.1000
     40 H40        -9.6875   -0.2709   54.7638 H       1  ZINC000623695407    0.0800
     41 H41        -7.0544    2.0974   56.7841 H       1  ZINC000623695407    0.0700
     42 H42        -8.5750    2.9278   56.3754 H       1  ZINC000623695407    0.0700
     43 H43        -9.3794    0.4234   57.1620 H       1  ZINC000623695407    0.3900
     44 H44        -9.8816   -0.0732   59.3869 H       1  ZINC000623695407    0.3900
     45 H45       -10.0366    2.1509   62.6217 H       1  ZINC000623695407    0.0700
     46 H46       -10.0227    2.8719   60.9944 H       1  ZINC000623695407    0.0700
     47 H47       -11.1656    1.5623   61.3778 H       1  ZINC000623695407    0.0600
     48 H48       -10.3508   -0.7274   61.7781 H       1  ZINC000623695407    0.1000
     49 H49        -8.6372   -1.1395   61.5291 H       1  ZINC000623695407    0.0800
     50 H50       -11.0934    0.3009   63.8637 H       1  ZINC000623695407    0.1300
     51 H51       -10.5855    0.7083   66.2387 H       1  ZINC000623695407    0.1500
     52 H52        -6.5529   -0.0499   65.6152 H       1  ZINC000623695407    0.1600
     53 H53        -6.9408   -0.4876   63.2230 H       1  ZINC000623695407    0.1400
     54 H54        -6.6774    4.8756   53.4355 H       1  ZINC000623695407    0.1200
     55 H55        -6.7100    6.4916   51.5789 H       1  ZINC000623695407    0.1300
@<TRIPOS>BOND
     1     1     2    1
     2     1    30    1
     3     1    31    1
     4     1    32    1
     5     2     3    1
     6     3    29   ar
     7     3     4   ar
     8     4     5   ar
     9     4    33    1
    10     5     6   ar
    11     5    34    1
    12     6     7    1
    13     6    28   ar
    14     7     8    1
    15     7    35    1
    16     7    36    1
    17     8    11    1
    18     8     9    1
    19     9    10    1
    20     9    37    1
    21     9    38    1
    22    10    11    1
    23    10    39    1
    24    10    40    1
    25    11    12    1
    26    11    13    1
    27    13    14    1
    28    13    41    1
    29    13    42    1
    30    14    15   am
    31    14    43    1
    32    15    16    2
    33    15    17   am
    34    17    18    1
    35    17    44    1
    36    18    19    1
    37    18    20    1
    38    18    21    1
    39    20    45    1
    40    20    46    1
    41    20    47    1
    42    21    22    1
    43    21    48    1
    44    21    49    1
    45    22    27   ar
    46    22    23   ar
    47    23    24   ar
    48    23    50    1
    49    24    25   ar
    50    24    51    1
    51    25    26   ar
    52    26    27   ar
    53    26    52    1
    54    27    53    1
    55    28    29   ar
    56    28    54    1
    57    29    55    1
@<TRIPOS>SUBSTRUCTURE
     1 ZINC000623695407        1 TEMP              0 ****  ****    0 ROOT


##########                                Name:    ZINC001408567397
##########                DOCK_Rotatable_Bonds:                   9
##########                         Heavy_Atoms:                  24
##########                    Molecular_Weight:             336.434
##########                DOCK_Rotatable_Bonds:                   9
##########                       Formal_Charge:          -0.0199996
##########                     HBond_Acceptors:                   7
##########                        HBond_Donors:                   2
##########                         Heavy_Atoms:                  24
##########                          Grid_Score:          -33.595692
##########                     Grid_vdw_energy:          -31.498537
##########                      Grid_es_energy:           -2.097155
##########           Internal_energy_repulsive:           30.286589

@<TRIPOS>MOLECULE
ZINC001408567397
 52 53 1 0 0
SMALL
USER_CHARGES


@<TRIPOS>ATOM
      1 C1        -10.3678   -0.5108   53.2852 C.3     1  ZINC001408567397   -0.0800
      2 C2         -9.3209    0.1890   54.1132 C.2     1  ZINC001408567397    0.0900
      3 N3         -8.0936    0.4466   53.7401 N.2     1  ZINC001408567397   -0.2900
      4 N4         -7.4458    1.1064   54.7923 N.pl3   1  ZINC001408567397   -0.4700
      5 C5         -8.3261    1.2348   55.8070 C.2     1  ZINC001408567397    0.1100
      6 C6         -8.0572    1.8844   57.1399 C.3     1  ZINC001408567397   -0.1000
      7 C7         -9.4954    0.6807   55.4110 C.2     1  ZINC001408567397   -0.2200
      8 C8        -10.7596    0.5998   56.2272 C.3     1  ZINC001408567397   -0.0600
      9 C9        -10.7316   -0.6463   57.0743 C.2     1  ZINC001408567397    0.5100
     10 O10       -10.4149   -1.7080   56.5810 O.2     1  ZINC001408567397   -0.5300
     11 N11       -11.0586   -0.5810   58.3802 N.am    1  ZINC001408567397   -0.7300
     12 C12       -11.0297   -1.7920   59.2041 C.3     1  ZINC001408567397    0.1100
     13 C13       -11.2072   -1.4122   60.6755 C.3     1  ZINC001408567397    0.1000
     14 N14       -10.1203   -0.5186   61.0836 N.am    1  ZINC001408567397   -0.6200
     15 C15        -8.7473   -0.7897   60.6503 C.3     1  ZINC001408567397    0.0700
     16 C16       -10.3835    0.5529   61.8576 C.2     1  ZINC001408567397    0.5100
     17 O17       -11.5198    0.7765   62.2176 O.2     1  ZINC001408567397   -0.5300
     18 C18        -9.2658    1.4730   62.2760 C.3     1  ZINC001408567397   -0.1300
     19 C19        -8.9059    1.2060   63.7389 C.3     1  ZINC001408567397   -0.1100
     20 H20        -7.9599    1.6931   63.9759 H       1  ZINC001408567397    0.0900
     21 C21       -10.0083    1.7599   64.6466 C.3     1  ZINC001408567397   -0.1200
     22 C22        -9.6755    1.4185   66.1022 C.3     1  ZINC001408567397   -0.1600
     23 C23        -9.5173   -0.0980   66.2393 C.3     1  ZINC001408567397    0.0600
     24 O24        -8.4983   -0.5520   65.3462 O.3     1  ZINC001408567397   -0.3800
     25 C25        -8.7759   -0.3022   63.9668 C.3     1  ZINC001408567397    0.0600
     26 H26       -10.9217    0.2250   52.7023 H       1  ZINC001408567397    0.0800
     27 H27        -9.8849   -1.2188   52.6117 H       1  ZINC001408567397    0.0700
     28 H28       -11.0539   -1.0447   53.9427 H       1  ZINC001408567397    0.0800
     29 H29        -6.5265    1.4162   54.7918 H       1  ZINC001408567397    0.4400
     30 H30        -8.2972    2.9461   57.0817 H       1  ZINC001408567397    0.0800
     31 H31        -8.6749    1.4137   57.9047 H       1  ZINC001408567397    0.0900
     32 H32        -7.0050    1.7634   57.3973 H       1  ZINC001408567397    0.0700
     33 H33       -10.8325    1.4756   56.8718 H       1  ZINC001408567397    0.1000
     34 H34       -11.6212    0.5665   55.5605 H       1  ZINC001408567397    0.1000
     35 H35       -11.3131    0.2679   58.7746 H       1  ZINC001408567397    0.4000
     36 H36       -11.8380   -2.4573   58.9006 H       1  ZINC001408567397    0.0700
     37 H37       -10.0735   -2.2984   59.0723 H       1  ZINC001408567397    0.0700
     38 H38       -12.1631   -0.9053   60.8071 H       1  ZINC001408567397    0.0800
     39 H39       -11.1862   -2.3132   61.2885 H       1  ZINC001408567397    0.0900
     40 H40        -8.5597   -0.2868   59.7017 H       1  ZINC001408567397    0.0600
     41 H41        -8.0495   -0.4201   61.4017 H       1  ZINC001408567397    0.0800
     42 H42        -8.6112   -1.8639   60.5253 H       1  ZINC001408567397    0.0800
     43 H43        -8.3929    1.2932   61.6484 H       1  ZINC001408567397    0.1000
     44 H44        -9.5866    2.5087   62.1640 H       1  ZINC001408567397    0.1000
     45 H45       -10.0671    2.8421   64.5302 H       1  ZINC001408567397    0.0700
     46 H46       -10.9636    1.3104   64.3760 H       1  ZINC001408567397    0.0600
     47 H47        -8.7449    1.9090   66.3879 H       1  ZINC001408567397    0.0700
     48 H48       -10.4823    1.7606   66.7504 H       1  ZINC001408567397    0.0700
     49 H49        -9.2384   -0.3433   67.2640 H       1  ZINC001408567397    0.0900
     50 H50       -10.4605   -0.5856   65.9925 H       1  ZINC001408567397    0.0500
     51 H51        -9.7093   -0.7921   63.6893 H       1  ZINC001408567397    0.0400
     52 H52        -7.9634   -0.6950   63.3556 H       1  ZINC001408567397    0.1100
@<TRIPOS>BOND
     1     1     2    1
     2     1    26    1
     3     1    27    1
     4     1    28    1
     5     2     7    1
     6     2     3    2
     7     3     4    1
     8     4     5    1
     9     4    29    1
    10     5     6    1
    11     5     7    2
    12     6    30    1
    13     6    31    1
    14     6    32    1
    15     7     8    1
    16     8     9    1
    17     8    33    1
    18     8    34    1
    19     9    10    2
    20     9    11   am
    21    11    12    1
    22    11    35    1
    23    12    13    1
    24    12    36    1
    25    12    37    1
    26    13    14    1
    27    13    38    1
    28    13    39    1
    29    14    15    1
    30    14    16   am
    31    15    40    1
    32    15    41    1
    33    15    42    1
    34    16    17    2
    35    16    18    1
    36    18    19    1
    37    18    43    1
    38    18    44    1
    39    19    20    1
    40    19    25    1
    41    19    21    1
    42    21    22    1
    43    21    45    1
    44    21    46    1
    45    22    23    1
    46    22    47    1
    47    22    48    1
    48    23    24    1
    49    23    49    1
    50    23    50    1
    51    24    25    1
    52    25    51    1
    53    25    52    1
@<TRIPOS>SUBSTRUCTURE
     1 ZINC001408567397        1 TEMP              0 ****  ****    0 ROOT


##########                                Name:    ZINC001574157642
##########                DOCK_Rotatable_Bonds:                   9
##########                         Heavy_Atoms:                  28
##########                    Molecular_Weight:             387.445
##########                DOCK_Rotatable_Bonds:                   9
##########                       Formal_Charge:          -0.0400004
##########                     HBond_Acceptors:                  11
##########                        HBond_Donors:                   4
##########                         Heavy_Atoms:                  28
##########                          Grid_Score:          -33.546124
##########                     Grid_vdw_energy:          -34.687515
##########                      Grid_es_energy:            1.141392
##########           Internal_energy_repulsive:           11.950861

@<TRIPOS>MOLECULE
ZINC001574157642
 53 55 1 0 0
SMALL
USER_CHARGES


@<TRIPOS>ATOM
      1 C1        -14.6926   -2.3453   60.0042 C.3     1  ZINC001574157642   -0.1400
      2 C2        -13.9365   -2.5242   58.6862 C.3     1  ZINC001574157642   -0.0900
      3 C3        -14.9132   -2.9632   57.5934 C.3     1  ZINC001574157642   -0.1500
      4 C4        -13.2869   -1.1978   58.2868 C.3     1  ZINC001574157642   -0.1300
      5 C5        -11.7851   -1.2587   58.5734 C.3     1  ZINC001574157642    0.1300
      6 H6        -11.4814   -2.2976   58.7014 H       1  ZINC001574157642    0.1100
      7 C7        -11.4778   -0.4762   59.8518 C.3     1  ZINC001574157642    0.1100
      8 N8        -10.0708   -0.6648   60.2135 N.pl3   1  ZINC001574157642   -0.7100
      9 C9         -9.6412   -0.3817   61.5040 C.ar    1  ZINC001574157642    0.3700
     10 C10       -10.5430    0.1097   62.4463 C.ar    1  ZINC001574157642    0.0000
     11 N11       -10.1360    0.3791   63.6708 N.ar    1  ZINC001574157642   -0.3700
     12 C12        -8.8644    0.1815   64.0075 C.ar    1  ZINC001574157642    0.0800
     13 C13        -8.4060    0.4841   65.3860 C.2     1  ZINC001574157642    0.2300
     14 N14        -7.1825    0.3451   65.8574 N.2     1  ZINC001574157642   -0.2700
     15 N15        -7.1919    0.7123   67.0926 N.pl3   1  ZINC001574157642   -0.2300
     16 N16        -8.3819    1.0794   67.4189 N.2     1  ZINC001574157642   -0.0400
     17 N17        -9.1540    0.9576   66.3929 N.2     1  ZINC001574157642   -0.2600
     18 C18        -7.9634   -0.3100   63.0658 C.ar    1  ZINC001574157642    0.1600
     19 N19        -8.3732   -0.5842   61.8407 N.ar    1  ZINC001574157642   -0.5000
     20 N20       -11.0496   -0.6696   57.4517 N.am    1  ZINC001574157642   -0.7300
     21 C21       -10.7428   -1.4231   56.3772 C.2     1  ZINC001574157642    0.5200
     22 O22       -11.0741   -2.5891   56.3395 O.2     1  ZINC001574157642   -0.5100
     23 C23        -9.9878   -0.8167   55.2225 C.3     1  ZINC001574157642   -0.1300
     24 H24        -9.1157   -1.4293   54.9937 H       1  ZINC001574157642    0.1100
     25 C25        -9.5376    0.6022   55.5904 C.3     1  ZINC001574157642   -0.1000
     26 C26        -8.6226    1.1230   54.4793 C.3     1  ZINC001574157642   -0.1400
     27 C27        -9.2644    0.8965   53.1407 C.2     1  ZINC001574157642    0.5200
     28 O28        -8.8464    1.5233   52.1902 O.2     1  ZINC001574157642   -0.5500
     29 N29       -10.2692    0.0427   52.9409 N.am    1  ZINC001574157642   -0.7200
     30 C30       -10.8985   -0.7426   53.9963 C.3     1  ZINC001574157642    0.1200
     31 H31       -15.4643   -1.5856   59.8802 H       1  ZINC001574157642    0.0400
     32 H32       -15.1554   -3.2902   60.2888 H       1  ZINC001574157642    0.0500
     33 H33       -13.9968   -2.0326   60.7828 H       1  ZINC001574157642    0.0700
     34 H34       -13.1647   -3.2839   58.8103 H       1  ZINC001574157642    0.0700
     35 H35       -15.6849   -2.2035   57.4693 H       1  ZINC001574157642    0.0500
     36 H36       -14.3745   -3.0907   56.6544 H       1  ZINC001574157642    0.0500
     37 H37       -15.3760   -3.9081   57.8780 H       1  ZINC001574157642    0.0500
     38 H38       -13.4468   -1.0206   57.2232 H       1  ZINC001574157642    0.0700
     39 H39       -13.7338   -0.3867   58.8615 H       1  ZINC001574157642    0.0800
     40 H40       -11.6712    0.5834   59.6846 H       1  ZINC001574157642    0.0800
     41 H41       -12.1126   -0.8382   60.6607 H       1  ZINC001574157642    0.0900
     42 H42        -9.4390   -0.9875   59.5519 H       1  ZINC001574157642    0.4100
     43 H43       -11.5755    0.2701   62.1730 H       1  ZINC001574157642    0.1700
     44 H44        -6.4230    0.7118   67.6839 H       1  ZINC001574157642    0.4800
     45 H45        -6.9308   -0.4703   63.3385 H       1  ZINC001574157642    0.1800
     46 H46       -10.7835    0.2627   57.4823 H       1  ZINC001574157642    0.4000
     47 H47       -10.4086    1.2511   55.6828 H       1  ZINC001574157642    0.0800
     48 H48        -8.9932    0.5813   56.5345 H       1  ZINC001574157642    0.0900
     49 H49        -8.4502    2.1897   54.6223 H       1  ZINC001574157642    0.1100
     50 H50        -7.6697    0.5951   54.5178 H       1  ZINC001574157642    0.1000
     51 H51       -10.6014   -0.0648   52.0360 H       1  ZINC001574157642    0.4000
     52 H52       -11.0961   -1.7491   53.6272 H       1  ZINC001574157642    0.0800
     53 H53       -11.8411   -0.2748   54.2801 H       1  ZINC001574157642    0.0700
@<TRIPOS>BOND
     1     1     2    1
     2     1    31    1
     3     1    32    1
     4     1    33    1
     5     2     3    1
     6     2     4    1
     7     2    34    1
     8     3    35    1
     9     3    36    1
    10     3    37    1
    11     4     5    1
    12     4    38    1
    13     4    39    1
    14     5     6    1
    15     5     7    1
    16     5    20    1
    17     7     8    1
    18     7    40    1
    19     7    41    1
    20     8     9    1
    21     8    42    1
    22     9    19   ar
    23     9    10   ar
    24    10    11   ar
    25    10    43    1
    26    11    12   ar
    27    12    13    1
    28    12    18   ar
    29    13    17    1
    30    13    14    2
    31    14    15    1
    32    15    16    1
    33    15    44    1
    34    16    17    2
    35    18    19   ar
    36    18    45    1
    37    20    21   am
    38    20    46    1
    39    21    22    2
    40    21    23    1
    41    23    24    1
    42    23    30    1
    43    23    25    1
    44    25    26    1
    45    25    47    1
    46    25    48    1
    47    26    27    1
    48    26    49    1
    49    26    50    1
    50    27    28    2
    51    27    29   am
    52    29    30    1
    53    29    51    1
    54    30    52    1
    55    30    53    1
@<TRIPOS>SUBSTRUCTURE
     1 ZINC001574157642        1 TEMP              0 ****  ****    0 ROOT


##########                                Name:    ZINC000185598309
##########                DOCK_Rotatable_Bonds:                  14
##########                         Heavy_Atoms:                  25
##########                    Molecular_Weight:             347.457
##########                DOCK_Rotatable_Bonds:                  14
##########                       Formal_Charge:               -0.02
##########                     HBond_Acceptors:                   6
##########                        HBond_Donors:                   4
##########                         Heavy_Atoms:                  25
##########                          Grid_Score:          -33.535194
##########                     Grid_vdw_energy:          -28.380030
##########                      Grid_es_energy:           -5.155167
##########           Internal_energy_repulsive:           18.761505

@<TRIPOS>MOLECULE
ZINC000185598309
 54 54 1 0 0
SMALL
USER_CHARGES


@<TRIPOS>ATOM
      1 C1        -11.5098    3.3751   65.0056 C.3     1  ZINC000185598309   -0.1300
      2 C2        -11.0188    3.1158   66.4066 C.2     1  ZINC000185598309   -0.1600
      3 C3         -9.8953    2.4700   66.5979 C.2     1  ZINC000185598309   -0.1600
      4 C4         -9.0945    1.9846   65.4172 C.3     1  ZINC000185598309   -0.0900
      5 C5         -9.5453    0.5718   65.0413 C.3     1  ZINC000185598309    0.1700
      6 H6        -10.6163    0.5738   64.8389 H       1  ZINC000185598309    0.1000
      7 C7         -9.2465   -0.3837   66.1983 C.3     1  ZINC000185598309    0.0600
      8 O8         -7.8330   -0.4786   66.3849 O.3     1  ZINC000185598309   -0.5700
      9 N9         -8.8232    0.1309   63.8452 N.am    1  ZINC000185598309   -0.7300
     10 C10        -9.3597    0.3254   62.6242 C.2     1  ZINC000185598309    0.7000
     11 O11       -10.4422    0.8682   62.5153 O.2     1  ZINC000185598309   -0.5900
     12 N12        -8.6961   -0.0816   61.5240 N.am    1  ZINC000185598309   -0.7400
     13 C13        -9.2802    0.1283   60.1969 C.3     1  ZINC000185598309    0.1800
     14 C14        -8.5543    1.2506   59.5005 C.ar    1  ZINC000185598309   -0.0900
     15 C15        -8.3288    2.4430   60.1629 C.ar    1  ZINC000185598309   -0.1100
     16 C16        -7.6635    3.4755   59.5272 C.ar    1  ZINC000185598309   -0.1000
     17 C17        -7.2220    3.3181   58.2282 C.ar    1  ZINC000185598309   -0.1100
     18 C18        -7.4467    2.1213   57.5602 C.ar    1  ZINC000185598309    0.1400
     19 N19        -7.0003    1.9584   56.2442 N.am    1  ZINC000185598309   -0.6800
     20 C20        -7.7880    2.3275   55.2147 C.2     1  ZINC000185598309    0.5200
     21 O21        -8.8840    2.8008   55.4291 O.2     1  ZINC000185598309   -0.5200
     22 C22        -7.3072    2.1521   53.7973 C.3     1  ZINC000185598309   -0.1100
     23 H23        -6.3252    1.6791   53.8027 H       1  ZINC000185598309    0.1000
     24 C24        -7.2106    3.5198   53.1185 C.3     1  ZINC000185598309   -0.1500
     25 C25        -8.2939    1.2701   53.0295 C.3     1  ZINC000185598309   -0.1100
     26 C26        -8.1724   -0.1750   53.5173 C.3     1  ZINC000185598309   -0.1600
     27 C27        -8.1103    1.0848   58.2030 C.ar    1  ZINC000185598309   -0.1300
     28 H28       -12.4526    3.9206   65.0462 H       1  ZINC000185598309    0.0600
     29 H29       -10.7707    3.9668   64.4654 H       1  ZINC000185598309    0.0600
     30 H30       -11.6611    2.4257   64.4921 H       1  ZINC000185598309    0.0600
     31 H31       -11.5933    3.4624   67.2530 H       1  ZINC000185598309    0.1100
     32 H32        -9.5429    2.2852   67.6021 H       1  ZINC000185598309    0.1100
     33 H33        -9.2525    2.6537   64.5713 H       1  ZINC000185598309    0.0900
     34 H34        -8.0359    1.9713   65.6770 H       1  ZINC000185598309    0.0800
     35 H35        -9.7088   -0.0056   67.1102 H       1  ZINC000185598309    0.0500
     36 H36        -9.6498   -1.3699   65.9685 H       1  ZINC000185598309    0.0500
     37 H37        -7.4063    0.3639   66.5931 H       1  ZINC000185598309    0.3800
     38 H38        -7.9590   -0.3010   63.9320 H       1  ZINC000185598309    0.4000
     39 H39        -7.8320   -0.5136   61.6108 H       1  ZINC000185598309    0.4000
     40 H40        -9.1856   -0.7851   59.6096 H       1  ZINC000185598309    0.0700
     41 H41       -10.3341    0.3863   60.3004 H       1  ZINC000185598309    0.0800
     42 H42        -8.6730    2.5686   61.1788 H       1  ZINC000185598309    0.1300
     43 H43        -7.4894    4.4060   60.0470 H       1  ZINC000185598309    0.1300
     44 H44        -6.7029    4.1249   57.7322 H       1  ZINC000185598309    0.1300
     45 H45        -6.1238    1.5799   56.0727 H       1  ZINC000185598309    0.4100
     46 H46        -6.5077    4.1482   53.6655 H       1  ZINC000185598309    0.0600
     47 H47        -6.8629    3.3929   52.0933 H       1  ZINC000185598309    0.0800
     48 H48        -8.1926    3.9928   53.1131 H       1  ZINC000185598309    0.0600
     49 H49        -9.3094    1.6272   53.2005 H       1  ZINC000185598309    0.0700
     50 H50        -8.0676    1.3142   51.9642 H       1  ZINC000185598309    0.0700
     51 H51        -7.1569   -0.5321   53.3463 H       1  ZINC000185598309    0.0600
     52 H52        -8.3987   -0.2192   54.5826 H       1  ZINC000185598309    0.0600
     53 H53        -8.8753   -0.8033   52.9702 H       1  ZINC000185598309    0.0600
     54 H54        -8.2865    0.1529   57.6863 H       1  ZINC000185598309    0.1300
@<TRIPOS>BOND
     1     1     2    1
     2     1    28    1
     3     1    29    1
     4     1    30    1
     5     2     3    2
     6     2    31    1
     7     3     4    1
     8     3    32    1
     9     4     5    1
    10     4    33    1
    11     4    34    1
    12     5     6    1
    13     5     7    1
    14     5     9    1
    15     7     8    1
    16     7    35    1
    17     7    36    1
    18     8    37    1
    19     9    10   am
    20     9    38    1
    21    10    11    2
    22    10    12   am
    23    12    13    1
    24    12    39    1
    25    13    14    1
    26    13    40    1
    27    13    41    1
    28    14    27   ar
    29    14    15   ar
    30    15    16   ar
    31    15    42    1
    32    16    17   ar
    33    16    43    1
    34    17    18   ar
    35    17    44    1
    36    18    19    1
    37    18    27   ar
    38    19    20   am
    39    19    45    1
    40    20    21    2
    41    20    22    1
    42    22    23    1
    43    22    24    1
    44    22    25    1
    45    24    46    1
    46    24    47    1
    47    24    48    1
    48    25    26    1
    49    25    49    1
    50    25    50    1
    51    26    51    1
    52    26    52    1
    53    26    53    1
    54    27    54    1
@<TRIPOS>SUBSTRUCTURE
     1 ZINC000185598309        1 TEMP              0 ****  ****    0 ROOT


##########                                Name:    ZINC000508782983
##########                DOCK_Rotatable_Bonds:                   9
##########                         Heavy_Atoms:                  27
##########                    Molecular_Weight:             373.458
##########                DOCK_Rotatable_Bonds:                   9
##########                       Formal_Charge:          -0.0200006
##########                     HBond_Acceptors:                   9
##########                        HBond_Donors:                   2
##########                         Heavy_Atoms:                  27
##########                          Grid_Score:          -33.507404
##########                     Grid_vdw_energy:          -33.965946
##########                      Grid_es_energy:            0.458544
##########           Internal_energy_repulsive:           14.894756

@<TRIPOS>MOLECULE
ZINC000508782983
 54 56 1 0 0
SMALL
USER_CHARGES


@<TRIPOS>ATOM
      1 C1        -12.3122    3.0333   65.9293 C.3     1  ZINC000508782983   -0.1500
      2 C2        -10.8788    2.5996   65.6158 C.3     1  ZINC000508782983   -0.1100
      3 C3         -9.9431    3.0949   66.7203 C.3     1  ZINC000508782983   -0.1500
      4 C4        -10.8132    1.0730   65.5383 C.3     1  ZINC000508782983    0.1000
      5 N5         -9.4409    0.6578   65.2369 N.pl3   1  ZINC000508782983   -0.4400
      6 C6         -8.4996    0.2464   66.1415 C.2     1  ZINC000508782983   -0.0400
      7 C7         -7.3853   -0.0396   65.4414 C.2     1  ZINC000508782983   -0.0300
      8 N8         -7.6394    0.1908   64.1447 N.2     1  ZINC000508782983   -0.4700
      9 C9         -8.8703    0.6041   64.0142 C.2     1  ZINC000508782983    0.1700
     10 C10        -9.5409    0.9697   62.7150 C.3     1  ZINC000508782983    0.2100
     11 N11        -9.7860   -0.2448   61.9333 N.am    1  ZINC000508782983   -0.6900
     12 C12       -10.9610   -0.4091   61.2939 C.2     1  ZINC000508782983    0.5100
     13 O13       -11.8165    0.4484   61.3670 O.2     1  ZINC000508782983   -0.5100
     14 C14       -11.2103   -1.6473   60.4949 C.2     1  ZINC000508782983    0.5100
     15 O15       -11.7731   -2.5944   61.0035 O.2     1  ZINC000508782983   -0.5200
     16 N16       -10.8101   -1.7118   59.2096 N.am    1  ZINC000508782983   -0.5800
     17 C17       -11.0510   -2.9183   58.4036 C.3     1  ZINC000508782983    0.0800
     18 C18       -11.7238   -2.5009   57.0916 C.3     1  ZINC000508782983    0.0400
     19 N19       -10.9114   -1.4676   56.4355 N.3     1  ZINC000508782983   -0.5400
     20 C20       -11.4291   -1.1634   55.0949 C.3     1  ZINC000508782983    0.1400
     21 C21       -10.2770   -0.9864   54.1397 C.2     1  ZINC000508782983    0.2100
     22 N22       -10.3426   -1.0928   52.8407 N.2     1  ZINC000508782983   -0.4900
     23 C23        -9.1280   -0.8714   52.3168 C.2     1  ZINC000508782983   -0.0300
     24 C24        -8.2773   -0.6181   53.3296 C.2     1  ZINC000508782983   -0.0500
     25 N25        -9.0068   -0.6857   54.4859 N.pl3   1  ZINC000508782983   -0.5600
     26 C26       -10.8303   -0.2524   57.2569 C.3     1  ZINC000508782983    0.0400
     27 C27       -10.1263   -0.5753   58.5739 C.3     1  ZINC000508782983    0.1100
     28 H28       -12.3589    4.1208   65.9845 H       1  ZINC000508782983    0.0700
     29 H29       -12.9789    2.6804   65.1424 H       1  ZINC000508782983    0.0600
     30 H30       -12.6199    2.6074   66.8843 H       1  ZINC000508782983    0.0600
     31 H31       -10.5709    3.0255   64.6608 H       1  ZINC000508782983    0.0800
     32 H32       -10.2960    2.7316   67.6855 H       1  ZINC000508782983    0.0600
     33 H33        -8.9356    2.7211   66.5377 H       1  ZINC000508782983    0.0600
     34 H34        -9.9309    4.1848   66.7247 H       1  ZINC000508782983    0.0600
     35 H35       -11.1201    0.6472   66.4936 H       1  ZINC000508782983    0.1000
     36 H36       -11.4805    0.7201   64.7520 H       1  ZINC000508782983    0.0900
     37 H37        -8.6261    0.1668   67.2111 H       1  ZINC000508782983    0.1800
     38 H38        -6.4510   -0.3928   65.8520 H       1  ZINC000508782983    0.1700
     39 H39       -10.4891    1.4656   62.9226 H       1  ZINC000508782983    0.0900
     40 H40        -8.8955    1.6417   62.1494 H       1  ZINC000508782983    0.1100
     41 H41        -9.1026   -0.9308   61.8758 H       1  ZINC000508782983    0.4200
     42 H42       -10.1024   -3.4102   58.1884 H       1  ZINC000508782983    0.0800
     43 H43       -11.7041   -3.5990   58.9496 H       1  ZINC000508782983    0.1400
     44 H44       -11.8097   -3.3670   56.4353 H       1  ZINC000508782983    0.0900
     45 H45       -12.7167   -2.1037   57.3022 H       1  ZINC000508782983    0.0400
     46 H46       -12.0606   -1.9840   54.7544 H       1  ZINC000508782983    0.0900
     47 H47       -12.0151   -0.2450   55.1314 H       1  ZINC000508782983    0.0700
     48 H48        -8.8763   -0.8924   51.2668 H       1  ZINC000508782983    0.1700
     49 H49        -7.2230   -0.3995   53.2454 H       1  ZINC000508782983    0.1800
     50 H50        -8.6726   -0.5487   55.3861 H       1  ZINC000508782983    0.4200
     51 H51       -10.2684    0.5122   56.7205 H       1  ZINC000508782983    0.1100
     52 H52       -11.8357    0.1135   57.4652 H       1  ZINC000508782983    0.0400
     53 H53       -10.1655    0.2924   59.2323 H       1  ZINC000508782983    0.1000
     54 H54        -9.0881   -0.8433   58.3780 H       1  ZINC000508782983    0.0800
@<TRIPOS>BOND
     1     1     2    1
     2     1    28    1
     3     1    29    1
     4     1    30    1
     5     2     3    1
     6     2     4    1
     7     2    31    1
     8     3    32    1
     9     3    33    1
    10     3    34    1
    11     4     5    1
    12     4    35    1
    13     4    36    1
    14     5     9    1
    15     5     6    1
    16     6     7    2
    17     6    37    1
    18     7     8    1
    19     7    38    1
    20     8     9    2
    21     9    10    1
    22    10    11    1
    23    10    39    1
    24    10    40    1
    25    11    12   am
    26    11    41    1
    27    12    13    2
    28    12    14    1
    29    14    15    2
    30    14    16   am
    31    16    27    1
    32    16    17    1
    33    17    18    1
    34    17    42    1
    35    17    43    1
    36    18    19    1
    37    18    44    1
    38    18    45    1
    39    19    20    1
    40    19    26    1
    41    20    21    1
    42    20    46    1
    43    20    47    1
    44    21    25    1
    45    21    22    2
    46    22    23    1
    47    23    24    2
    48    23    48    1
    49    24    25    1
    50    24    49    1
    51    25    50    1
    52    26    27    1
    53    26    51    1
    54    26    52    1
    55    27    53    1
    56    27    54    1
@<TRIPOS>SUBSTRUCTURE
     1 ZINC000508782983        1 TEMP              0 ****  ****    0 ROOT


##########                                Name:    ZINC000482846390
##########                DOCK_Rotatable_Bonds:                   9
##########                         Heavy_Atoms:                  30
##########                    Molecular_Weight:             420.469
##########                DOCK_Rotatable_Bonds:                   9
##########                       Formal_Charge:          -0.0100011
##########                     HBond_Acceptors:                  11
##########                        HBond_Donors:                   2
##########                         Heavy_Atoms:                  30
##########                          Grid_Score:          -33.480915
##########                     Grid_vdw_energy:          -34.328815
##########                      Grid_es_energy:            0.847899
##########           Internal_energy_repulsive:           21.824400

@<TRIPOS>MOLECULE
ZINC000482846390
 58 60 1 0 0
SMALL
USER_CHARGES


@<TRIPOS>ATOM
      1 C1         -8.8857   -0.0465   65.7833 C.3     1  ZINC000482846390   -0.1000
      2 C2         -9.1809    0.1132   64.3141 C.2     1  ZINC000482846390    0.0900
      3 C3         -8.4053   -0.3189   63.2929 C.2     1  ZINC000482846390   -0.2700
      4 C4         -9.0384    0.0281   62.0949 C.2     1  ZINC000482846390    0.0700
      5 C5         -8.5247   -0.2612   60.7080 C.3     1  ZINC000482846390   -0.0500
      6 C6         -9.7041   -0.5502   59.7773 C.3     1  ZINC000482846390    0.1500
      7 H7        -10.4597    0.2265   59.8963 H       1  ZINC000482846390    0.1000
      8 C8        -10.3106   -1.9099   60.1297 C.3     1  ZINC000482846390   -0.1700
      9 N9         -9.2374   -0.5687   58.3888 N.am    1  ZINC000482846390   -0.6800
     10 C10       -10.0515   -0.1528   57.3985 C.2     1  ZINC000482846390    0.5100
     11 O11       -11.1706    0.2385   57.6572 O.2     1  ZINC000482846390   -0.5200
     12 C12        -9.5759   -0.1734   55.9819 C.2     1  ZINC000482846390    0.5100
     13 O13        -9.7032   -1.1783   55.3136 O.2     1  ZINC000482846390   -0.5100
     14 N14        -9.0058    0.9241   55.4464 N.am    1  ZINC000482846390   -0.5900
     15 C15        -8.8396    2.1462   56.2456 C.3     1  ZINC000482846390    0.0500
     16 C16        -7.3599    2.5487   56.2238 C.3     1  ZINC000482846390    0.1000
     17 N17        -6.8926    2.5447   54.8304 N.am    1  ZINC000482846390   -0.6000
     18 C18        -6.3216    3.6420   54.2952 C.2     1  ZINC000482846390    0.5200
     19 O19        -6.1895    4.6452   54.9651 O.2     1  ZINC000482846390   -0.5000
     20 C20        -5.8512    3.6233   52.8768 C.2     1  ZINC000482846390    0.5200
     21 O21        -4.7794    3.1263   52.5996 O.2     1  ZINC000482846390   -0.5000
     22 N22        -6.6172    4.1584   51.9056 N.am    1  ZINC000482846390   -0.6000
     23 C23        -6.1779    4.1464   50.5013 C.3     1  ZINC000482846390    0.0700
     24 C24        -7.3162    3.5824   49.6434 C.3     1  ZINC000482846390    0.0500
     25 O25        -8.5193    4.3011   49.9262 O.3     1  ZINC000482846390   -0.3700
     26 C26        -8.9714    4.1773   51.2768 C.3     1  ZINC000482846390    0.0500
     27 C27        -7.9203    4.7667   52.2174 C.3     1  ZINC000482846390    0.0700
     28 C28        -7.0587    1.3226   54.0311 C.3     1  ZINC000482846390    0.0900
     29 C29        -8.5334    0.9184   54.0547 C.3     1  ZINC000482846390    0.0900
     30 N30       -10.1540    0.6464   62.3864 N.2     1  ZINC000482846390   -0.2800
     31 N31       -10.2689    0.7077   63.7812 N.pl3   1  ZINC000482846390   -0.4700
     32 H32        -9.3081   -0.9864   66.1386 H       1  ZINC000482846390    0.0800
     33 H33        -7.8068   -0.0512   65.9387 H       1  ZINC000482846390    0.0900
     34 H34        -9.3286    0.7826   66.3351 H       1  ZINC000482846390    0.0700
     35 H35        -7.4637   -0.8395   63.3864 H       1  ZINC000482846390    0.1500
     36 H36        -7.9727    0.6027   60.3376 H       1  ZINC000482846390    0.0900
     37 H37        -7.8649   -1.1281   60.7385 H       1  ZINC000482846390    0.1100
     38 H38       -10.6580   -1.8961   61.1627 H       1  ZINC000482846390    0.0700
     39 H39       -11.1509   -2.1157   59.4666 H       1  ZINC000482846390    0.0700
     40 H40        -9.5552   -2.6865   60.0107 H       1  ZINC000482846390    0.0600
     41 H41        -8.3424   -0.8804   58.1821 H       1  ZINC000482846390    0.4200
     42 H42        -9.4430    2.9474   55.8187 H       1  ZINC000482846390    0.0800
     43 H43        -9.1522    1.9570   57.2726 H       1  ZINC000482846390    0.1600
     44 H44        -7.2462    3.5477   56.6449 H       1  ZINC000482846390    0.1100
     45 H45        -6.7780    1.8349   56.8068 H       1  ZINC000482846390    0.0800
     46 H46        -5.9451    5.1618   50.1807 H       1  ZINC000482846390    0.0900
     47 H47        -5.2941    3.5168   50.3984 H       1  ZINC000482846390    0.0900
     48 H48        -7.0660    3.6923   48.5883 H       1  ZINC000482846390    0.1100
     49 H49        -7.4594    2.5272   49.8764 H       1  ZINC000482846390    0.0600
     50 H50        -9.9118    4.7152   51.3966 H       1  ZINC000482846390    0.1100
     51 H51        -9.1205    3.1243   51.5156 H       1  ZINC000482846390    0.0600
     52 H52        -8.1902    4.5504   53.2512 H       1  ZINC000482846390    0.1100
     53 H53        -7.8603    5.8452   52.0712 H       1  ZINC000482846390    0.0800
     54 H54        -6.7462    1.5119   53.0042 H       1  ZINC000482846390    0.0900
     55 H55        -6.4553    0.5216   54.4580 H       1  ZINC000482846390    0.0900
     56 H56        -8.6457   -0.0807   53.6334 H       1  ZINC000482846390    0.1100
     57 H57        -9.1176    1.6313   53.4727 H       1  ZINC000482846390    0.0800
     58 H58       -10.9986    1.1117   64.2765 H       1  ZINC000482846390    0.4400
@<TRIPOS>BOND
     1     1     2    1
     2     1    32    1
     3     1    33    1
     4     1    34    1
     5     2    31    1
     6     2     3    2
     7     3     4    1
     8     3    35    1
     9     4     5    1
    10     4    30    2
    11     5     6    1
    12     5    36    1
    13     5    37    1
    14     6     7    1
    15     6     8    1
    16     6     9    1
    17     8    38    1
    18     8    39    1
    19     8    40    1
    20     9    10   am
    21     9    41    1
    22    10    11    2
    23    10    12    1
    24    12    13    2
    25    12    14   am
    26    14    29    1
    27    14    15    1
    28    15    16    1
    29    15    42    1
    30    15    43    1
    31    16    17    1
    32    16    44    1
    33    16    45    1
    34    17    18   am
    35    17    28    1
    36    18    19    2
    37    18    20    1
    38    20    21    2
    39    20    22   am
    40    22    27    1
    41    22    23    1
    42    23    24    1
    43    23    46    1
    44    23    47    1
    45    24    25    1
    46    24    48    1
    47    24    49    1
    48    25    26    1
    49    26    27    1
    50    26    50    1
    51    26    51    1
    52    27    52    1
    53    27    53    1
    54    28    29    1
    55    28    54    1
    56    28    55    1
    57    29    56    1
    58    29    57    1
    59    30    31    1
    60    31    58    1
@<TRIPOS>SUBSTRUCTURE
     1 ZINC000482846390        1 TEMP              0 ****  ****    0 ROOT


##########                                Name:    ZINC000114394234
##########                DOCK_Rotatable_Bonds:                   9
##########                         Heavy_Atoms:                  27
##########                    Molecular_Weight:             365.392
##########                DOCK_Rotatable_Bonds:                   9
##########                       Formal_Charge:           0.0300002
##########                     HBond_Acceptors:                   8
##########                        HBond_Donors:                   3
##########                         Heavy_Atoms:                  27
##########                          Grid_Score:          -33.465893
##########                     Grid_vdw_energy:          -27.644695
##########                      Grid_es_energy:           -5.821199
##########           Internal_energy_repulsive:           10.464625

@<TRIPOS>MOLECULE
ZINC000114394234
 46 48 1 0 0
SMALL
USER_CHARGES


@<TRIPOS>ATOM
      1 C1         -2.0875    5.5249   54.8749 C.3     1  ZINC000114394234   -0.1600
      2 C2         -2.3002    5.1445   53.4083 C.3     1  ZINC000114394234    0.1300
      3 H3         -2.0418    5.9912   52.7722 H       1  ZINC000114394234    0.1200
      4 N4         -1.4468    4.0023   53.0714 N.am    1  ZINC000114394234   -0.7100
      5 C5         -0.1804    4.2061   52.6575 C.2     1  ZINC000114394234    0.5200
      6 O6          0.2522    5.3352   52.5625 O.2     1  ZINC000114394234   -0.5100
      7 C7          0.6979    3.0312   52.3126 C.3     1  ZINC000114394234    0.0400
      8 O8          0.4588    2.6386   50.9596 O.3     1  ZINC000114394234   -0.2900
      9 C9          0.9799    1.4483   50.5612 C.ar    1  ZINC000114394234    0.1300
     10 C10         0.6269    0.9121   49.3313 C.ar    1  ZINC000114394234   -0.2100
     11 C11         1.1584   -0.2978   48.9285 C.ar    1  ZINC000114394234   -0.0800
     12 C12         2.0409   -0.9744   49.7500 C.ar    1  ZINC000114394234   -0.1600
     13 C13         2.3938   -0.4423   50.9765 C.ar    1  ZINC000114394234   -0.0800
     14 C14         1.8700    0.7703   51.3812 C.ar    1  ZINC000114394234   -0.1500
     15 C15        -3.7445    4.7743   53.1897 C.2     1  ZINC000114394234    0.5100
     16 O16        -4.6119    5.2948   53.8590 O.2     1  ZINC000114394234   -0.5100
     17 N17        -4.0724    3.8649   52.2507 N.am    1  ZINC000114394234   -0.6700
     18 C18        -5.4137    3.5212   52.0478 C.ar    1  ZINC000114394234    0.1300
     19 C19        -6.0557    2.6711   52.9396 C.ar    1  ZINC000114394234   -0.1200
     20 C20        -7.3804    2.3294   52.7424 C.ar    1  ZINC000114394234   -0.1000
     21 C21        -8.0726    2.8304   51.6582 C.ar    1  ZINC000114394234   -0.0900
     22 C22        -7.4363    3.6835   50.7582 C.ar    1  ZINC000114394234    0.0000
     23 C23        -8.1790    4.2225   49.5918 C.2     1  ZINC000114394234    0.2700
     24 N24        -9.4764    4.1286   49.3993 N.2     1  ZINC000114394234   -0.3000
     25 N25        -9.7513    4.7698   48.1805 N.pl3   1  ZINC000114394234   -0.4800
     26 C26        -8.5733    5.2175   47.7097 C.2     1  ZINC000114394234    0.2700
     27 N27        -7.6395    4.8905   48.5634 N.2     1  ZINC000114394234   -0.5300
     28 C28        -6.1042    4.0336   50.9596 C.ar    1  ZINC000114394234   -0.0800
     29 H29        -2.3458    4.6783   55.5110 H       1  ZINC000114394234    0.0700
     30 H30        -1.0428    5.7927   55.0330 H       1  ZINC000114394234    0.0800
     31 H31        -2.7224    6.3747   55.1256 H       1  ZINC000114394234    0.0800
     32 H32        -1.7932    3.0994   53.1462 H       1  ZINC000114394234    0.4100
     33 H33         1.7443    3.3130   52.4298 H       1  ZINC000114394234    0.1000
     34 H34         0.4692    2.1988   52.9782 H       1  ZINC000114394234    0.1000
     35 H35        -0.0630    1.4399   48.6895 H       1  ZINC000114394234    0.1300
     36 H36         0.8839   -0.7155   47.9712 H       1  ZINC000114394234    0.1300
     37 H37         2.4550   -1.9202   49.4335 H       1  ZINC000114394234    0.1300
     38 H38         3.0831   -0.9729   51.6165 H       1  ZINC000114394234    0.1300
     39 H39         2.1461    1.1854   52.3393 H       1  ZINC000114394234    0.1300
     40 H40        -3.3787    3.4487   51.7155 H       1  ZINC000114394234    0.4200
     41 H41        -5.5182    2.2760   53.7889 H       1  ZINC000114394234    0.1300
     42 H42        -7.8752    1.6682   53.4384 H       1  ZINC000114394234    0.1400
     43 H43        -9.1075    2.5609   51.5071 H       1  ZINC000114394234    0.1400
     44 H44       -10.6199    4.8700   47.7606 H       1  ZINC000114394234    0.4400
     45 H45        -8.4254    5.7586   46.7868 H       1  ZINC000114394234    0.2300
     46 H46        -5.6069    4.6943   50.2650 H       1  ZINC000114394234    0.1500
@<TRIPOS>BOND
     1     1     2    1
     2     1    29    1
     3     1    30    1
     4     1    31    1
     5     2     3    1
     6     2     4    1
     7     2    15    1
     8     4     5   am
     9     4    32    1
    10     5     6    2
    11     5     7    1
    12     7     8    1
    13     7    33    1
    14     7    34    1
    15     8     9    1
    16     9    14   ar
    17     9    10   ar
    18    10    11   ar
    19    10    35    1
    20    11    12   ar
    21    11    36    1
    22    12    13   ar
    23    12    37    1
    24    13    14   ar
    25    13    38    1
    26    14    39    1
    27    15    16    2
    28    15    17   am
    29    17    18    1
    30    17    40    1
    31    18    28   ar
    32    18    19   ar
    33    19    20   ar
    34    19    41    1
    35    20    21   ar
    36    20    42    1
    37    21    22   ar
    38    21    43    1
    39    22    23    1
    40    22    28   ar
    41    23    27    1
    42    23    24    2
    43    24    25    1
    44    25    26    1
    45    25    44    1
    46    26    27    2
    47    26    45    1
    48    28    46    1
@<TRIPOS>SUBSTRUCTURE
     1 ZINC000114394234        1 TEMP              0 ****  ****    0 ROOT


##########                                Name:    ZINC000013809319
##########                DOCK_Rotatable_Bonds:                  10
##########                         Heavy_Atoms:                  30
##########                    Molecular_Weight:             407.469
##########                DOCK_Rotatable_Bonds:                  10
##########                       Formal_Charge:         -0.00999978
##########                     HBond_Acceptors:                   7
##########                        HBond_Donors:                   1
##########                         Heavy_Atoms:                  30
##########                          Grid_Score:          -33.429474
##########                     Grid_vdw_energy:          -30.737885
##########                      Grid_es_energy:           -2.691591
##########           Internal_energy_repulsive:           13.565269

@<TRIPOS>MOLECULE
ZINC000013809319
 55 57 1 0 0
SMALL
USER_CHARGES


@<TRIPOS>ATOM
      1 C1         -9.4723    2.0765   65.9152 C.3     1  ZINC000013809319   -0.1500
      2 C2         -8.7035    1.3673   64.7985 C.3     1  ZINC000013809319    0.0500
      3 O3         -9.3670    0.1467   64.4642 O.3     1  ZINC000013809319   -0.3100
      4 C4         -9.6656   -0.0541   63.1549 C.ar    1  ZINC000013809319    0.1500
      5 C5        -10.9590    0.1652   62.6975 C.ar    1  ZINC000013809319   -0.2200
      6 C6        -11.2654   -0.0371   61.3695 C.ar    1  ZINC000013809319   -0.0300
      7 C7        -10.2746   -0.4628   60.4833 C.ar    1  ZINC000013809319   -0.1100
      8 C8        -10.5999   -0.6806   59.0560 C.2     1  ZINC000013809319    0.2300
      9 C9        -10.5685   -1.9579   58.5201 C.2     1  ZINC000013809319   -0.2900
     10 C10       -10.8848   -2.1199   57.1600 C.2     1  ZINC000013809319    0.5300
     11 O11       -10.8706   -3.2263   56.6456 O.2     1  ZINC000013809319   -0.5400
     12 N12       -11.2048   -1.0280   56.4345 N.am    1  ZINC000013809319   -0.5100
     13 C13       -11.5391   -1.1683   55.0151 C.3     1  ZINC000013809319    0.0700
     14 C14       -10.4149   -0.6155   54.1773 C.2     1  ZINC000013809319    0.5000
     15 O15        -9.3777   -1.2347   54.0695 O.2     1  ZINC000013809319   -0.5200
     16 N16       -10.5622    0.5672   53.5480 N.am    1  ZINC000013809319   -0.7200
     17 C17        -9.4701    1.1039   52.7321 C.3     1  ZINC000013809319    0.1300
     18 C18        -8.8902    2.3468   53.4103 C.3     1  ZINC000013809319   -0.0800
     19 C19        -7.6869    2.8244   52.6390 C.ar    1  ZINC000013809319   -0.1200
     20 C20        -6.4159    2.5918   53.1271 C.ar    1  ZINC000013809319   -0.0800
     21 C21        -5.3114    3.0304   52.4201 C.ar    1  ZINC000013809319   -0.1500
     22 C22        -5.4760    3.7022   51.2231 C.ar    1  ZINC000013809319   -0.0800
     23 C23        -6.7453    3.9371   50.7303 C.ar    1  ZINC000013809319   -0.2100
     24 C24        -7.8547    3.4936   51.4350 C.ar    1  ZINC000013809319    0.1300
     25 O25        -9.1041    3.7233   50.9525 O.3     1  ZINC000013809319   -0.3100
     26 C26        -9.2015    4.4291   49.7137 C.3     1  ZINC000013809319    0.0300
     27 C27       -11.2189    0.1913   57.0096 C.2     1  ZINC000013809319    0.3900
     28 N28       -10.9333    0.3588   58.2711 N.2     1  ZINC000013809319   -0.5300
     29 C29        -8.9762   -0.6821   60.9463 C.ar    1  ZINC000013809319   -0.0500
     30 C30        -8.6756   -0.4727   62.2746 C.ar    1  ZINC000013809319   -0.1600
     31 H31       -10.4854    2.2945   65.5771 H       1  ZINC000013809319    0.0700
     32 H32        -9.5131    1.4327   66.7937 H       1  ZINC000013809319    0.0700
     33 H33        -8.9662    3.0076   66.1702 H       1  ZINC000013809319    0.0800
     34 H34        -8.6627    2.0112   63.9199 H       1  ZINC000013809319    0.0600
     35 H35        -7.6904    1.1494   65.1366 H       1  ZINC000013809319    0.0600
     36 H36       -11.7253    0.4942   63.3839 H       1  ZINC000013809319    0.1300
     37 H37       -12.2713    0.1332   61.0146 H       1  ZINC000013809319    0.1400
     38 H38       -10.3071   -2.8084   59.1324 H       1  ZINC000013809319    0.1600
     39 H39       -11.6840   -2.2224   54.7784 H       1  ZINC000013809319    0.1300
     40 H40       -12.4557   -0.6185   54.8015 H       1  ZINC000013809319    0.1300
     41 H41       -11.3914    1.0631   53.6352 H       1  ZINC000013809319    0.4000
     42 H42        -8.6901    0.3497   52.6278 H       1  ZINC000013809319    0.0700
     43 H43        -9.8507    1.3720   51.7466 H       1  ZINC000013809319    0.0700
     44 H44        -9.6438    3.1339   53.4320 H       1  ZINC000013809319    0.0800
     45 H45        -8.5937    2.0995   54.4297 H       1  ZINC000013809319    0.0800
     46 H46        -6.2847    2.0672   54.0620 H       1  ZINC000013809319    0.1300
     47 H47        -4.3184    2.8481   52.8038 H       1  ZINC000013809319    0.1300
     48 H48        -4.6119    4.0441   50.6729 H       1  ZINC000013809319    0.1300
     49 H49        -6.8734    4.4623   49.7953 H       1  ZINC000013809319    0.1300
     50 H50        -8.6852    3.8684   48.9345 H       1  ZINC000013809319    0.0600
     51 H51       -10.2510    4.5449   49.4431 H       1  ZINC000013809319    0.1000
     52 H52        -8.7427    5.4122   49.8186 H       1  ZINC000013809319    0.0600
     53 H53       -11.4777    1.0520   56.4106 H       1  ZINC000013809319    0.2000
     54 H54        -8.2071   -1.0114   60.2633 H       1  ZINC000013809319    0.1400
     55 H55        -7.6712   -0.6418   62.6334 H       1  ZINC000013809319    0.1400
@<TRIPOS>BOND
     1     1     2    1
     2     1    31    1
     3     1    32    1
     4     1    33    1
     5     2     3    1
     6     2    34    1
     7     2    35    1
     8     3     4    1
     9     4    30   ar
    10     4     5   ar
    11     5     6   ar
    12     5    36    1
    13     6     7   ar
    14     6    37    1
    15     7     8    1
    16     7    29   ar
    17     8    28    1
    18     8     9    2
    19     9    10    1
    20     9    38    1
    21    10    11    2
    22    10    12   am
    23    12    13    1
    24    12    27    1
    25    13    14    1
    26    13    39    1
    27    13    40    1
    28    14    15    2
    29    14    16   am
    30    16    17    1
    31    16    41    1
    32    17    18    1
    33    17    42    1
    34    17    43    1
    35    18    19    1
    36    18    44    1
    37    18    45    1
    38    19    24   ar
    39    19    20   ar
    40    20    21   ar
    41    20    46    1
    42    21    22   ar
    43    21    47    1
    44    22    23   ar
    45    22    48    1
    46    23    24   ar
    47    23    49    1
    48    24    25    1
    49    25    26    1
    50    26    50    1
    51    26    51    1
    52    26    52    1
    53    27    28    2
    54    27    53    1
    55    29    30   ar
    56    29    54    1
    57    30    55    1
@<TRIPOS>SUBSTRUCTURE
     1 ZINC000013809319        1 TEMP              0 ****  ****    0 ROOT


##########                                Name:    ZINC001083519372
##########                DOCK_Rotatable_Bonds:                   7
##########                         Heavy_Atoms:                  27
##########                    Molecular_Weight:             370.411
##########                DOCK_Rotatable_Bonds:                   7
##########                       Formal_Charge:           0.0399996
##########                     HBond_Acceptors:                   9
##########                        HBond_Donors:                   2
##########                         Heavy_Atoms:                  27
##########                          Grid_Score:          -33.419582
##########                     Grid_vdw_energy:          -30.056883
##########                      Grid_es_energy:           -3.362699
##########           Internal_energy_repulsive:            6.815153

@<TRIPOS>MOLECULE
ZINC001083519372
 49 52 1 0 0
SMALL
USER_CHARGES


@<TRIPOS>ATOM
      1 C1        -10.6471    0.0914   52.4810 C.3     1  ZINC001083519372   -0.1500
      2 C2        -10.4502    0.1276   53.9978 C.3     1  ZINC001083519372   -0.0100
      3 C3        -10.6502   -1.2765   54.5717 C.3     1  ZINC001083519372   -0.1500
      4 C4         -9.0558    0.6049   54.3122 C.2     1  ZINC001083519372   -0.0100
      5 C5         -8.6903    1.3713   55.3531 C.2     1  ZINC001083519372   -0.0100
      6 C6         -9.6035    1.9122   56.4230 C.3     1  ZINC001083519372    0.1300
      7 N7         -9.9474    0.8369   57.3628 N.3     1  ZINC001083519372   -0.5000
      8 C8         -9.0139    0.8209   58.5180 C.3     1  ZINC001083519372    0.0300
      9 C9         -9.8020    0.0407   59.5999 C.3     1  ZINC001083519372    0.1500
     10 H10        -9.7239   -1.0339   59.4344 H       1  ZINC001083519372    0.1200
     11 N11        -9.3285    0.3926   60.9409 N.am    1  ZINC001083519372   -0.6900
     12 C12        -9.6273   -0.3986   61.9902 C.2     1  ZINC001083519372    0.5600
     13 O13       -10.2887   -1.4053   61.8238 O.2     1  ZINC001083519372   -0.5100
     14 C14        -9.1522   -0.0434   63.3407 C.2     1  ZINC001083519372    0.1400
     15 C15        -7.8401   -0.2222   63.6874 C.2     1  ZINC001083519372   -0.1500
     16 C16        -7.4194    0.1247   64.9783 C.2     1  ZINC001083519372    0.1800
     17 N17        -8.2715    0.6154   65.8459 N.2     1  ZINC001083519372   -0.4400
     18 C18        -9.5570    0.7975   65.5266 C.2     1  ZINC001083519372    0.2500
     19 C19       -10.6435    1.2885   66.2426 C.2     1  ZINC001083519372   -0.2500
     20 C20       -11.7480    1.2525   65.4078 C.2     1  ZINC001083519372    0.1000
     21 N21       -11.3866    0.7703   64.2387 N.2     1  ZINC001083519372   -0.3100
     22 N22       -10.0187    0.4789   64.2736 N.pl3   1  ZINC001083519372   -0.3100
     23 C23       -11.2549    0.5231   59.3845 C.3     1  ZINC001083519372    0.0900
     24 H24       -11.9512   -0.3066   59.5070 H       1  ZINC001083519372    0.0800
     25 O25       -11.5699    1.5733   60.3010 O.3     1  ZINC001083519372   -0.5600
     26 C26       -11.2949    1.0448   57.9362 C.3     1  ZINC001083519372    0.0100
     27 N27        -7.3628    1.5686   55.2684 N.2     1  ZINC001083519372   -0.4800
     28 C28        -6.9148    0.9489   54.2140 C.2     1  ZINC001083519372    0.1700
     29 O29        -7.9401    0.3381   53.6052 O.3     1  ZINC001083519372   -0.2000
     30 H30       -10.5045    1.0917   52.0721 H       1  ZINC001083519372    0.0600
     31 H31        -9.9211   -0.5896   52.0366 H       1  ZINC001083519372    0.0600
     32 H32       -11.6556   -0.2538   52.2537 H       1  ZINC001083519372    0.0700
     33 H33       -11.1760    0.8085   54.4423 H       1  ZINC001083519372    0.1000
     34 H34        -9.9243   -1.9575   54.1273 H       1  ZINC001083519372    0.0600
     35 H35       -10.5100   -1.2507   55.6524 H       1  ZINC001083519372    0.0600
     36 H36       -11.6588   -1.6217   54.3443 H       1  ZINC001083519372    0.0700
     37 H37        -9.0989    2.7159   56.9592 H       1  ZINC001083519372    0.0900
     38 H38       -10.5135    2.2976   55.9630 H       1  ZINC001083519372    0.0600
     39 H39        -8.0927    0.2978   58.2609 H       1  ZINC001083519372    0.1000
     40 H40        -8.8004    1.8355   58.8542 H       1  ZINC001083519372    0.0600
     41 H41        -8.7999    1.1951   61.0736 H       1  ZINC001083519372    0.4300
     42 H42        -7.1370   -0.6265   62.9742 H       1  ZINC001083519372    0.1800
     43 H43        -6.3860   -0.0132   65.2607 H       1  ZINC001083519372    0.1900
     44 H44       -10.6286    1.6352   67.2654 H       1  ZINC001083519372    0.1700
     45 H45       -12.7456    1.5692   65.6740 H       1  ZINC001083519372    0.2000
     46 H46       -10.8244    1.8533   60.8496 H       1  ZINC001083519372    0.3900
     47 H47       -11.5409    2.1067   57.9307 H       1  ZINC001083519372    0.0700
     48 H48       -12.0335    0.4869   57.3607 H       1  ZINC001083519372    0.0900
     49 H49        -5.8858    0.9274   53.8869 H       1  ZINC001083519372    0.2500
@<TRIPOS>BOND
     1     1     2    1
     2     1    30    1
     3     1    31    1
     4     1    32    1
     5     2     3    1
     6     2     4    1
     7     2    33    1
     8     3    34    1
     9     3    35    1
    10     3    36    1
    11     4    29    1
    12     4     5    2
    13     5     6    1
    14     5    27    1
    15     6     7    1
    16     6    37    1
    17     6    38    1
    18     7    26    1
    19     7     8    1
    20     8     9    1
    21     8    39    1
    22     8    40    1
    23     9    10    1
    24     9    11    1
    25     9    23    1
    26    11    12   am
    27    11    41    1
    28    12    13    2
    29    12    14    1
    30    14    22    1
    31    14    15    2
    32    15    16    1
    33    15    42    1
    34    16    17    2
    35    16    43    1
    36    17    18    1
    37    18    22    1
    38    18    19    2
    39    19    20    1
    40    19    44    1
    41    20    21    2
    42    20    45    1
    43    21    22    1
    44    23    24    1
    45    23    25    1
    46    23    26    1
    47    25    46    1
    48    26    47    1
    49    26    48    1
    50    27    28    2
    51    28    29    1
    52    28    49    1
@<TRIPOS>SUBSTRUCTURE
     1 ZINC001083519372        1 TEMP              0 ****  ****    0 ROOT


##########                                Name:    ZINC001328997126
##########                DOCK_Rotatable_Bonds:                   7
##########                         Heavy_Atoms:                  26
##########                    Molecular_Weight:             388.488
##########                DOCK_Rotatable_Bonds:                   7
##########                       Formal_Charge:           0.0299993
##########                     HBond_Acceptors:                  10
##########                        HBond_Donors:                   1
##########                         Heavy_Atoms:                  26
##########                          Grid_Score:          -33.406841
##########                     Grid_vdw_energy:          -31.614597
##########                      Grid_es_energy:           -1.792245
##########           Internal_energy_repulsive:            8.573145

@<TRIPOS>MOLECULE
ZINC001328997126
 54 56 1 0 0
SMALL
USER_CHARGES


@<TRIPOS>ATOM
      1 C1         -5.7087    3.8949   50.9046 C.3     1  ZINC001328997126   -0.1700
      2 C2         -6.9509    3.0389   51.1602 C.3     1  ZINC001328997126    0.1400
      3 N3         -7.1664    2.9097   52.6034 N.am    1  ZINC001328997126   -0.6300
      4 C4         -6.6063    1.8540   53.4609 C.3     1  ZINC001328997126    0.0700
      5 C5         -7.1442    2.1966   54.8636 C.3     1  ZINC001328997126    0.0700
      6 H6         -6.3215    2.4010   55.5489 H       1  ZINC001328997126    0.1200
      7 C7         -8.0146    1.0572   55.3974 C.3     1  ZINC001328997126    0.0500
      8 N8         -8.8452    1.5522   56.5032 N.3     1  ZINC001328997126   -0.5300
      9 C9         -8.0184    1.9068   57.6652 C.3     1  ZINC001328997126    0.0500
     10 C10        -8.9102    2.4911   58.7633 C.3     1  ZINC001328997126    0.0600
     11 N11        -9.9373    1.5068   59.1320 N.3     1  ZINC001328997126   -0.5200
     12 C12       -10.7681    2.0019   60.2378 C.3     1  ZINC001328997126    0.0400
     13 C13        -9.9272    2.1237   61.4824 C.2     1  ZINC001328997126    0.5200
     14 O14        -9.4126    3.1850   61.7650 O.2     1  ZINC001328997126   -0.5100
     15 N15        -9.7469    1.0534   62.2813 N.am    1  ZINC001328997126   -0.7300
     16 C16        -8.9280    1.1714   63.4903 C.3     1  ZINC001328997126    0.1600
     17 H17        -8.0637    1.8038   63.2871 H       1  ZINC001328997126    0.1100
     18 C18        -9.7653    1.7884   64.6242 C.3     1  ZINC001328997126   -0.1400
     19 C19        -8.9622    1.5781   65.9337 C.3     1  ZINC001328997126   -0.5800
     20 S20        -8.3541   -0.1419   65.7566 S.o2    1  ZINC001328997126    2.4000
     21 O21        -6.9926   -0.2038   66.1590 O.2     1  ZINC001328997126   -0.9300
     22 O22        -9.3011   -1.0369   66.3236 O.2     1  ZINC001328997126   -0.9300
     23 C23        -8.4541   -0.2270   63.9339 C.3     1  ZINC001328997126   -0.6100
     24 C24       -10.7641    1.1522   57.9700 C.3     1  ZINC001328997126    0.0500
     25 C25        -9.8724    0.5680   56.8719 C.3     1  ZINC001328997126    0.0600
     26 O26        -7.9426    3.3968   54.6517 O.3     1  ZINC001328997126   -0.3100
     27 C27        -7.9013    3.7374   53.3588 C.2     1  ZINC001328997126    0.6400
     28 O28        -8.4837    4.7043   52.9089 O.2     1  ZINC001328997126   -0.5200
     29 H29        -5.8528    4.8836   51.3403 H       1  ZINC001328997126    0.0600
     30 H30        -4.8401    3.4199   51.3606 H       1  ZINC001328997126    0.0600
     31 H31        -5.5483    3.9909   49.8307 H       1  ZINC001328997126    0.0700
     32 H32        -7.8195    3.5138   50.7041 H       1  ZINC001328997126    0.0900
     33 H33        -6.8067    2.0502   50.7244 H       1  ZINC001328997126    0.0900
     34 H34        -6.9620    0.8738   53.1433 H       1  ZINC001328997126    0.0900
     35 H35        -5.5169    1.8892   53.4494 H       1  ZINC001328997126    0.0900
     36 H36        -8.6565    0.6856   54.5987 H       1  ZINC001328997126    0.0900
     37 H37        -7.3762    0.2496   55.7558 H       1  ZINC001328997126    0.0600
     38 H38        -7.5168    1.0148   58.0403 H       1  ZINC001328997126    0.0500
     39 H39        -7.2738    2.6460   57.3698 H       1  ZINC001328997126    0.0900
     40 H40        -8.3032    2.7280   59.6370 H       1  ZINC001328997126    0.0800
     41 H41        -9.3908    3.3983   58.3971 H       1  ZINC001328997126    0.0500
     42 H42       -11.1751    2.9789   59.9772 H       1  ZINC001328997126    0.1100
     43 H43       -11.5857    1.3040   60.4186 H       1  ZINC001328997126    0.0700
     44 H44       -10.1593    0.2049   62.0558 H       1  ZINC001328997126    0.4100
     45 H45        -9.9118    2.8533   64.4432 H       1  ZINC001328997126    0.1100
     46 H46       -10.7296    1.2848   64.6927 H       1  ZINC001328997126    0.0900
     47 H47        -8.1293    2.2787   65.9935 H       1  ZINC001328997126    0.1400
     48 H48        -9.6109    1.6714   66.8047 H       1  ZINC001328997126    0.1400
     49 H49        -9.1743   -0.9865   63.6294 H       1  ZINC001328997126    0.1400
     50 H50        -7.4732   -0.4430   63.5107 H       1  ZINC001328997126    0.1500
     51 H51       -11.5087    0.4130   58.2654 H       1  ZINC001328997126    0.1000
     52 H52       -11.2658    2.0443   57.5949 H       1  ZINC001328997126    0.0400
     53 H53       -10.4794    0.3311   55.9981 H       1  ZINC001328997126    0.0800
     54 H54        -9.3917   -0.3393   57.2381 H       1  ZINC001328997126    0.0500
@<TRIPOS>BOND
     1     1     2    1
     2     1    29    1
     3     1    30    1
     4     1    31    1
     5     2     3    1
     6     2    32    1
     7     2    33    1
     8     3    27   am
     9     3     4    1
    10     4     5    1
    11     4    34    1
    12     4    35    1
    13     5     6    1
    14     5     7    1
    15     5    26    1
    16     7     8    1
    17     7    36    1
    18     7    37    1
    19     8    25    1
    20     8     9    1
    21     9    10    1
    22     9    38    1
    23     9    39    1
    24    10    11    1
    25    10    40    1
    26    10    41    1
    27    11    12    1
    28    11    24    1
    29    12    13    1
    30    12    42    1
    31    12    43    1
    32    13    14    2
    33    13    15   am
    34    15    16    1
    35    15    44    1
    36    16    17    1
    37    16    23    1
    38    16    18    1
    39    18    19    1
    40    18    45    1
    41    18    46    1
    42    19    20    1
    43    19    47    1
    44    19    48    1
    45    20    21    2
    46    20    22    2
    47    20    23    1
    48    23    49    1
    49    23    50    1
    50    24    25    1
    51    24    51    1
    52    24    52    1
    53    25    53    1
    54    25    54    1
    55    26    27    1
    56    27    28    2
@<TRIPOS>SUBSTRUCTURE
     1 ZINC001328997126        1 TEMP              0 ****  ****    0 ROOT


##########                                Name:    ZINC000062882109
##########                DOCK_Rotatable_Bonds:                   8
##########                         Heavy_Atoms:                  31
##########                    Molecular_Weight:             424.497
##########                DOCK_Rotatable_Bonds:                   8
##########                       Formal_Charge:           0.0299993
##########                     HBond_Acceptors:                   7
##########                        HBond_Donors:                   1
##########                         Heavy_Atoms:                  31
##########                          Grid_Score:          -33.395924
##########                     Grid_vdw_energy:          -32.786510
##########                      Grid_es_energy:           -0.609413
##########           Internal_energy_repulsive:          188.510544

@<TRIPOS>MOLECULE
ZINC000062882109
 59 61 1 0 0
SMALL
USER_CHARGES


@<TRIPOS>ATOM
      1 C1        -13.5695   -3.3426   57.8999 C.3     1  ZINC000062882109   -0.2000
      2 C2        -12.3794   -2.8438   58.6783 C.2     1  ZINC000062882109    0.3900
      3 O3        -11.2925   -3.3571   58.5192 O.2     1  ZINC000062882109   -0.4500
      4 C4        -12.5365   -1.7335   59.6317 C.ar    1  ZINC000062882109   -0.1300
      5 C5        -13.7841   -1.1250   59.8016 C.ar    1  ZINC000062882109   -0.1100
      6 C6        -13.9264   -0.0848   60.6962 C.ar    1  ZINC000062882109   -0.0900
      7 C7        -12.8393    0.3593   61.4266 C.ar    1  ZINC000062882109   -0.1800
      8 C8        -11.5957   -0.2379   61.2652 C.ar    1  ZINC000062882109    0.1200
      9 O9        -10.5316    0.2038   61.9864 O.3     1  ZINC000062882109   -0.2800
     10 C10        -9.2815   -0.4526   61.7665 C.3     1  ZINC000062882109    0.0700
     11 H11        -9.4345   -1.5317   61.7566 H       1  ZINC000062882109    0.1000
     12 C12        -8.3086   -0.0857   62.8889 C.3     1  ZINC000062882109   -0.1800
     13 C13        -8.7099   -0.0140   60.4429 C.2     1  ZINC000062882109    0.5200
     14 O14        -8.0345   -0.7810   59.7899 O.2     1  ZINC000062882109   -0.4900
     15 N15        -8.9493    1.2308   59.9849 N.am    1  ZINC000062882109   -0.6600
     16 C16        -8.4179    1.6387   58.7543 C.ar    1  ZINC000062882109    0.1400
     17 C17        -7.2887    2.4454   58.7180 C.ar    1  ZINC000062882109   -0.1000
     18 C18        -6.7625    2.8512   57.5065 C.ar    1  ZINC000062882109   -0.1100
     19 C19        -7.3604    2.4545   56.3197 C.ar    1  ZINC000062882109    0.0800
     20 O20        -6.8382    2.8677   55.1340 O.3     1  ZINC000062882109   -0.3100
     21 C21        -7.1753    2.1218   53.9620 C.3     1  ZINC000062882109    0.0500
     22 C22        -8.6980    1.9308   53.9178 C.3     1  ZINC000062882109    0.0400
     23 N23        -9.0953    1.2351   55.1537 N.am    1  ZINC000062882109   -0.5500
     24 C24       -10.0063    0.2420   55.1329 C.2     1  ZINC000062882109    0.5300
     25 O25       -10.3182   -0.3167   56.1633 O.2     1  ZINC000062882109   -0.5100
     26 C26       -10.6375   -0.1742   53.8292 C.3     1  ZINC000062882109   -0.0800
     27 C27       -11.7418   -1.1977   54.1011 C.3     1  ZINC000062882109   -0.1300
     28 C28       -11.2376    1.0522   53.1387 C.3     1  ZINC000062882109   -0.1600
     29 C29        -9.5740   -0.7995   52.9243 C.3     1  ZINC000062882109   -0.1500
     30 C30        -8.4911    1.6422   56.3556 C.ar    1  ZINC000062882109    0.1000
     31 C31        -9.0167    1.2320   57.5693 C.ar    1  ZINC000062882109   -0.1400
     32 C32       -11.4405   -1.2865   60.3756 C.ar    1  ZINC000062882109   -0.0900
     33 H33       -13.2612   -4.1616   57.2501 H       1  ZINC000062882109    0.0900
     34 H34       -14.3342   -3.6958   58.5917 H       1  ZINC000062882109    0.1000
     35 H35       -13.9738   -2.5311   57.2948 H       1  ZINC000062882109    0.1000
     36 H36       -14.6351   -1.4688   59.2326 H       1  ZINC000062882109    0.1400
     37 H37       -14.8901    0.3849   60.8264 H       1  ZINC000062882109    0.1300
     38 H38       -12.9577    1.1741   62.1253 H       1  ZINC000062882109    0.1300
     39 H39        -8.7221   -0.4029   63.8463 H       1  ZINC000062882109    0.0800
     40 H40        -7.3550   -0.5864   62.7212 H       1  ZINC000062882109    0.0800
     41 H41        -8.1556    0.9934   62.8989 H       1  ZINC000062882109    0.0800
     42 H42        -9.4894    1.8443   60.5071 H       1  ZINC000062882109    0.4100
     43 H43        -6.8199    2.7570   59.6397 H       1  ZINC000062882109    0.1400
     44 H44        -5.8841    3.4791   57.4836 H       1  ZINC000062882109    0.1400
     45 H45        -6.8495    2.6667   53.0760 H       1  ZINC000062882109    0.1300
     46 H46        -6.6857    1.1485   53.9950 H       1  ZINC000062882109    0.0700
     47 H47        -9.1912    2.9013   53.8647 H       1  ZINC000062882109    0.0900
     48 H48        -8.9702    1.3288   53.0506 H       1  ZINC000062882109    0.1300
     49 H49       -12.4995   -0.7522   54.7457 H       1  ZINC000062882109    0.0600
     50 H50       -12.1983   -1.4987   53.1581 H       1  ZINC000062882109    0.0700
     51 H51       -11.3143   -2.0714   54.5929 H       1  ZINC000062882109    0.0700
     52 H52       -10.4510    1.7814   52.9450 H       1  ZINC000062882109    0.0700
     53 H53       -11.6942    0.7512   52.1959 H       1  ZINC000062882109    0.0800
     54 H54       -11.9953    1.4977   53.7833 H       1  ZINC000062882109    0.0600
     55 H55        -9.2889   -1.7747   53.3190 H       1  ZINC000062882109    0.0700
     56 H56        -9.9769   -0.9183   51.9186 H       1  ZINC000062882109    0.0800
     57 H57        -8.6986   -0.1509   52.8908 H       1  ZINC000062882109    0.0700
     58 H58        -9.8929    0.6009   57.5943 H       1  ZINC000062882109    0.1800
     59 H59       -10.4740   -1.7518   60.2497 H       1  ZINC000062882109    0.1400
@<TRIPOS>BOND
     1     1     2    1
     2     1    33    1
     3     1    34    1
     4     1    35    1
     5     2     3    2
     6     2     4    1
     7     4    32   ar
     8     4     5   ar
     9     5     6   ar
    10     5    36    1
    11     6     7   ar
    12     6    37    1
    13     7     8   ar
    14     7    38    1
    15     8     9    1
    16     8    32   ar
    17     9    10    1
    18    10    11    1
    19    10    12    1
    20    10    13    1
    21    12    39    1
    22    12    40    1
    23    12    41    1
    24    13    14    2
    25    13    15   am
    26    15    16    1
    27    15    42    1
    28    16    31   ar
    29    16    17   ar
    30    17    18   ar
    31    17    43    1
    32    18    19   ar
    33    18    44    1
    34    19    30   ar
    35    19    20    1
    36    20    21    1
    37    21    22    1
    38    21    45    1
    39    21    46    1
    40    22    23    1
    41    22    47    1
    42    22    48    1
    43    23    24   am
    44    23    30    1
    45    24    25    2
    46    24    26    1
    47    26    27    1
    48    26    28    1
    49    26    29    1
    50    27    49    1
    51    27    50    1
    52    27    51    1
    53    28    52    1
    54    28    53    1
    55    28    54    1
    56    29    55    1
    57    29    56    1
    58    29    57    1
    59    30    31   ar
    60    31    58    1
    61    32    59    1
@<TRIPOS>SUBSTRUCTURE
     1 ZINC000062882109        1 TEMP              0 ****  ****    0 ROOT


##########                                Name:    ZINC000980108339
##########                DOCK_Rotatable_Bonds:                   9
##########                         Heavy_Atoms:                  25
##########                    Molecular_Weight:             348.445
##########                DOCK_Rotatable_Bonds:                   9
##########                       Formal_Charge:          -0.0100001
##########                     HBond_Acceptors:                   7
##########                        HBond_Donors:                   3
##########                         Heavy_Atoms:                  25
##########                          Grid_Score:          -33.393108
##########                     Grid_vdw_energy:          -34.172668
##########                      Grid_es_energy:            0.779560
##########           Internal_energy_repulsive:           11.815291

@<TRIPOS>MOLECULE
ZINC000980108339
 53 56 1 0 0
SMALL
USER_CHARGES


@<TRIPOS>ATOM
      1 C1        -12.4092   -0.0689   52.2782 C.3     1  ZINC000980108339    0.1200
      2 N2        -11.3620   -0.4242   53.2392 N.am    1  ZINC000980108339   -0.6400
      3 C3        -11.3042    0.0209   54.6396 C.3     1  ZINC000980108339    0.1100
      4 C4        -10.0194   -0.6345   55.1824 C.3     1  ZINC000980108339    0.1000
      5 H5         -9.3089    0.1264   55.5056 H       1  ZINC000980108339    0.1200
      6 C6        -10.3425   -1.5709   56.3182 C.2     1  ZINC000980108339    0.5000
      7 O7        -10.6196   -2.7291   56.0890 O.2     1  ZINC000980108339   -0.5200
      8 N8        -10.3234   -1.1212   57.5885 N.am    1  ZINC000980108339   -0.7200
      9 C9        -10.6392   -2.0309   58.6924 C.3     1  ZINC000980108339    0.1300
     10 C10       -10.0147   -1.5009   59.9848 C.3     1  ZINC000980108339   -0.1200
     11 H11       -10.0828   -2.2103   60.8096 H       1  ZINC000980108339    0.1000
     12 C12        -8.6069   -0.9128   59.7926 C.3     1  ZINC000980108339   -0.1400
     13 C13        -9.0203    0.1936   60.7775 C.3     1  ZINC000980108339    0.1200
     14 H14        -8.6624    1.1841   60.4967 H       1  ZINC000980108339    0.1100
     15 N15        -8.7450   -0.1348   62.1784 N.am    1  ZINC000980108339   -0.7200
     16 C16        -8.5215    0.8506   63.0702 C.2     1  ZINC000980108339    0.5200
     17 O17        -8.5498    2.0095   62.7132 O.2     1  ZINC000980108339   -0.5300
     18 C18        -8.2364    0.5128   64.5110 C.3     1  ZINC000980108339   -0.1100
     19 C19        -8.7666    1.6303   65.4114 C.3     1  ZINC000980108339   -0.1300
     20 H20        -8.7034    2.6370   64.9981 H       1  ZINC000980108339    0.1200
     21 C21        -8.5728    1.4730   66.9210 C.3     1  ZINC000980108339   -0.1700
     22 C22        -9.9650    1.3079   66.3063 C.3     1  ZINC000980108339   -0.1200
     23 H23       -10.3755    0.2996   66.2538 H       1  ZINC000980108339    0.1000
     24 C24       -10.9830    2.4229   66.5535 C.3     1  ZINC000980108339   -0.1300
     25 C25       -11.3978    3.2791   65.3551 C.3     1  ZINC000980108339   -0.1800
     26 C26       -12.3749    2.2574   65.9402 C.3     1  ZINC000980108339   -0.1800
     27 C27       -10.4748   -0.0808   60.3541 C.3     1  ZINC000980108339   -0.1400
     28 N28        -9.4898   -1.3792   54.0303 N.am    1  ZINC000980108339   -0.7200
     29 C29       -10.3084   -1.2107   52.9834 C.2     1  ZINC000980108339    0.7000
     30 O30       -10.1082   -1.7184   51.8969 O.2     1  ZINC000980108339   -0.5800
     31 H31       -12.1991   -0.5436   51.3197 H       1  ZINC000980108339    0.0900
     32 H32       -13.3749   -0.4120   52.6496 H       1  ZINC000980108339    0.0600
     33 H33       -12.4329    1.0133   52.1502 H       1  ZINC000980108339    0.0600
     34 H34       -11.2316    1.1072   54.6931 H       1  ZINC000980108339    0.1000
     35 H35       -12.1760   -0.3329   55.1898 H       1  ZINC000980108339    0.0900
     36 H36       -10.1005   -0.1950   57.7719 H       1  ZINC000980108339    0.4000
     37 H37       -11.7206   -2.0960   58.8116 H       1  ZINC000980108339    0.0700
     38 H38       -10.2375   -3.0204   58.4741 H       1  ZINC000980108339    0.0700
     39 H39        -7.8103   -1.5555   60.1674 H       1  ZINC000980108339    0.0800
     40 H40        -8.4194   -0.5501   58.7820 H       1  ZINC000980108339    0.1000
     41 H41        -8.7235   -1.0615   62.4641 H       1  ZINC000980108339    0.4000
     42 H42        -8.7283   -0.4253   64.7683 H       1  ZINC000980108339    0.1000
     43 H43        -7.1608    0.4102   64.6541 H       1  ZINC000980108339    0.1000
     44 H44        -8.0676    0.5733   67.2725 H       1  ZINC000980108339    0.0900
     45 H45        -8.3826    2.3762   67.5007 H       1  ZINC000980108339    0.1000
     46 H46       -10.9158    2.9142   67.5242 H       1  ZINC000980108339    0.1000
     47 H47       -11.6036    4.3339   65.5374 H       1  ZINC000980108339    0.0900
     48 H48       -10.9455    3.0478   64.3908 H       1  ZINC000980108339    0.0900
     49 H49       -12.5654    1.3540   65.3608 H       1  ZINC000980108339    0.0900
     50 H50       -13.2234    2.6400   66.5074 H       1  ZINC000980108339    0.0900
     51 H51       -10.7988    0.5092   59.4968 H       1  ZINC000980108339    0.1000
     52 H52       -11.1835   -0.0512   61.1817 H       1  ZINC000980108339    0.0800
     53 H53        -8.6788   -1.9113   54.0296 H       1  ZINC000980108339    0.4400
@<TRIPOS>BOND
     1     1     2    1
     2     1    31    1
     3     1    32    1
     4     1    33    1
     5     2    29   am
     6     2     3    1
     7     3     4    1
     8     3    34    1
     9     3    35    1
    10     4     5    1
    11     4     6    1
    12     4    28    1
    13     6     7    2
    14     6     8   am
    15     8     9    1
    16     8    36    1
    17     9    10    1
    18     9    37    1
    19     9    38    1
    20    10    11    1
    21    10    27    1
    22    10    12    1
    23    12    13    1
    24    12    39    1
    25    12    40    1
    26    13    14    1
    27    13    15    1
    28    13    27    1
    29    15    16   am
    30    15    41    1
    31    16    17    2
    32    16    18    1
    33    18    19    1
    34    18    42    1
    35    18    43    1
    36    19    20    1
    37    19    22    1
    38    19    21    1
    39    21    22    1
    40    21    44    1
    41    21    45    1
    42    22    23    1
    43    22    24    1
    44    24    26    1
    45    24    25    1
    46    24    46    1
    47    25    26    1
    48    25    47    1
    49    25    48    1
    50    26    49    1
    51    26    50    1
    52    27    51    1
    53    27    52    1
    54    28    29   am
    55    28    53    1
    56    29    30    2
@<TRIPOS>SUBSTRUCTURE
     1 ZINC000980108339        1 TEMP              0 ****  ****    0 ROOT


##########                                Name:    ZINC000190927708
##########                DOCK_Rotatable_Bonds:                  10
##########                         Heavy_Atoms:                  26
##########                    Molecular_Weight:             358.437
##########                DOCK_Rotatable_Bonds:                  10
##########                       Formal_Charge:           0.0499998
##########                     HBond_Acceptors:                   6
##########                        HBond_Donors:                   1
##########                         Heavy_Atoms:                  26
##########                          Grid_Score:          -33.342209
##########                     Grid_vdw_energy:          -32.336281
##########                      Grid_es_energy:           -1.005929
##########           Internal_energy_repulsive:           25.209463

@<TRIPOS>MOLECULE
ZINC000190927708
 52 53 1 0 0
SMALL
USER_CHARGES


@<TRIPOS>ATOM
      1 C1         -9.5517    3.8928   63.0364 C.3     1  ZINC000190927708   -0.1500
      2 C2         -8.9090    3.0740   61.9150 C.3     1  ZINC000190927708   -0.1500
      3 C3         -9.8799    1.9828   61.4595 C.3     1  ZINC000190927708    0.1000
      4 N4         -9.1226    0.8376   60.9484 N.am    1  ZINC000190927708   -0.5900
      5 C5         -8.6130    0.8693   59.7010 C.2     1  ZINC000190927708    0.5300
      6 O6         -7.9848   -0.0781   59.2784 O.2     1  ZINC000190927708   -0.5300
      7 C7         -8.8239    2.0819   58.8316 C.3     1  ZINC000190927708   -0.0800
      8 C8         -8.5088    1.7342   57.3995 C.2     1  ZINC000190927708   -0.1700
      9 C9         -9.4396    1.1115   56.6350 C.2     1  ZINC000190927708    0.0000
     10 C10        -9.1023    0.7879   55.2475 C.ar    1  ZINC000190927708   -0.1300
     11 C11       -10.0211    0.1472   54.4103 C.ar    1  ZINC000190927708   -0.0500
     12 C12        -9.6756   -0.1401   53.1198 C.ar    1  ZINC000190927708   -0.1500
     13 C13        -8.4210    0.1982   52.6325 C.ar    1  ZINC000190927708   -0.0600
     14 C14        -7.4994    0.8298   53.4399 C.ar    1  ZINC000190927708   -0.1600
     15 C15        -7.8286    1.1327   54.7567 C.ar    1  ZINC000190927708    0.1900
     16 N16        -6.9266    1.7644   55.5863 N.am    1  ZINC000190927708   -0.6300
     17 C17        -7.2479    2.0631   56.8573 C.2     1  ZINC000190927708    0.5500
     18 O18        -6.4255    2.6218   57.5624 O.2     1  ZINC000190927708   -0.5300
     19 C19        -8.9191   -0.3420   61.7931 C.3     1  ZINC000190927708    0.1500
     20 H20        -8.0665   -0.9113   61.4227 H       1  ZINC000190927708    0.1400
     21 C21       -10.1726   -1.2183   61.7557 C.3     1  ZINC000190927708   -0.1300
     22 C22       -10.2889   -1.8840   60.3831 C.3     1  ZINC000190927708   -0.1500
     23 C23        -8.6536    0.0950   63.2107 C.2     1  ZINC000190927708    0.4500
     24 O24        -7.5185    0.2670   63.5872 O.2     1  ZINC000190927708   -0.5000
     25 O25        -9.6781    0.2932   64.0549 O.3     1  ZINC000190927708   -0.3500
     26 C26        -9.3474    0.7028   65.4081 C.3     1  ZINC000190927708    0.0600
     27 C27        -9.0118   -0.5318   66.2470 C.3     1  ZINC000190927708   -0.1500
     28 H28        -9.7835    3.2387   63.8770 H       1  ZINC000190927708    0.0600
     29 H29        -8.8601    4.6702   63.3608 H       1  ZINC000190927708    0.0600
     30 H30       -10.4695    4.3529   62.6702 H       1  ZINC000190927708    0.0600
     31 H31        -8.6774    3.7281   61.0744 H       1  ZINC000190927708    0.0800
     32 H32        -7.9912    2.6140   62.2812 H       1  ZINC000190927708    0.0700
     33 H33       -10.4924    1.6658   62.3037 H       1  ZINC000190927708    0.0900
     34 H34       -10.5227    2.3743   60.6711 H       1  ZINC000190927708    0.0900
     35 H35        -9.8617    2.4069   58.9066 H       1  ZINC000190927708    0.1100
     36 H36        -8.1667    2.8857   59.1634 H       1  ZINC000190927708    0.1200
     37 H37       -10.4083    0.8596   57.0407 H       1  ZINC000190927708    0.1400
     38 H38       -10.9993   -0.1196   54.7820 H       1  ZINC000190927708    0.1400
     39 H39       -10.3853   -0.6353   52.4735 H       1  ZINC000190927708    0.1300
     40 H40        -8.1638   -0.0360   51.6100 H       1  ZINC000190927708    0.1300
     41 H41        -6.5256    1.0889   53.0513 H       1  ZINC000190927708    0.1300
     42 H42        -6.0491    2.0004   55.2470 H       1  ZINC000190927708    0.4200
     43 H43       -10.1027   -1.9855   62.5269 H       1  ZINC000190927708    0.0900
     44 H44       -11.0529   -0.6012   61.9360 H       1  ZINC000190927708    0.0800
     45 H45       -11.1820   -2.5083   60.3565 H       1  ZINC000190927708    0.0600
     46 H46       -10.3588   -1.1169   59.6120 H       1  ZINC000190927708    0.0600
     47 H47        -9.4086   -2.5011   60.2029 H       1  ZINC000190927708    0.0600
     48 H48        -8.4869    1.3715   65.3853 H       1  ZINC000190927708    0.0700
     49 H49       -10.1988    1.2213   65.8490 H       1  ZINC000190927708    0.0700
     50 H50        -9.8722   -1.2005   66.2699 H       1  ZINC000190927708    0.0700
     51 H51        -8.1604   -1.0503   65.8060 H       1  ZINC000190927708    0.0700
     52 H52        -8.7635   -0.2243   67.2629 H       1  ZINC000190927708    0.0800
@<TRIPOS>BOND
     1     1     2    1
     2     1    28    1
     3     1    29    1
     4     1    30    1
     5     2     3    1
     6     2    31    1
     7     2    32    1
     8     3     4    1
     9     3    33    1
    10     3    34    1
    11     4     5   am
    12     4    19    1
    13     5     6    2
    14     5     7    1
    15     7     8    1
    16     7    35    1
    17     7    36    1
    18     8    17    1
    19     8     9    2
    20     9    10    1
    21     9    37    1
    22    10    15   ar
    23    10    11   ar
    24    11    12   ar
    25    11    38    1
    26    12    13   ar
    27    12    39    1
    28    13    14   ar
    29    13    40    1
    30    14    15   ar
    31    14    41    1
    32    15    16    1
    33    16    17   am
    34    16    42    1
    35    17    18    2
    36    19    20    1
    37    19    21    1
    38    19    23    1
    39    21    22    1
    40    21    43    1
    41    21    44    1
    42    22    45    1
    43    22    46    1
    44    22    47    1
    45    23    24    2
    46    23    25    1
    47    25    26    1
    48    26    27    1
    49    26    48    1
    50    26    49    1
    51    27    50    1
    52    27    51    1
    53    27    52    1
@<TRIPOS>SUBSTRUCTURE
     1 ZINC000190927708        1 TEMP              0 ****  ****    0 ROOT


##########                                Name:    ZINC000058174787
##########                DOCK_Rotatable_Bonds:                   9
##########                         Heavy_Atoms:                  27
##########                    Molecular_Weight:             413.882
##########                DOCK_Rotatable_Bonds:                   9
##########                       Formal_Charge:           0.0200002
##########                     HBond_Acceptors:                  10
##########                        HBond_Donors:                   1
##########                         Heavy_Atoms:                  27
##########                          Grid_Score:          -33.219284
##########                     Grid_vdw_energy:          -33.588264
##########                      Grid_es_energy:            0.368980
##########           Internal_energy_repulsive:            4.002213

@<TRIPOS>MOLECULE
ZINC000058174787
 47 48 1 0 0
SMALL
USER_CHARGES


@<TRIPOS>ATOM
      1 C1         -4.1984    4.3292   51.9600 C.3     1  ZINC000058174787   -0.0700
      2 C2         -5.4942    3.5935   52.1859 C.2     1  ZINC000058174787    0.2100
      3 N3         -5.9010    3.1013   53.3240 N.2     1  ZINC000058174787   -0.4200
      4 C4         -7.0958    2.5167   53.1513 C.2     1  ZINC000058174787   -0.5600
      5 S5         -8.0452    1.7129   54.3991 S.o2    1  ZINC000058174787    2.7400
      6 O6         -9.3701    2.2128   54.2796 O.2     1  ZINC000058174787   -0.9500
      7 O7         -7.7258    0.3307   54.3183 O.2     1  ZINC000058174787   -0.9600
      8 N8         -7.4770    2.2395   55.8628 N.am    1  ZINC000058174787   -1.1100
      9 C9         -8.0763    1.7415   57.1034 C.3     1  ZINC000058174787    0.1300
     10 C10        -7.8085    2.7365   58.2344 C.3     1  ZINC000058174787   -0.1200
     11 C11        -8.4361    2.2306   59.5076 C.2     1  ZINC000058174787    0.4700
     12 O12        -9.0648    2.9843   60.2122 O.2     1  ZINC000058174787   -0.5000
     13 O13        -8.2968    0.9426   59.8589 O.3     1  ZINC000058174787   -0.3300
     14 C14        -9.4270    0.3132   60.5183 C.3     1  ZINC000058174787    0.0400
     15 H15       -10.3403    0.8528   60.2680 H       1  ZINC000058174787    0.1200
     16 C16        -9.2155    0.3440   62.0333 C.3     1  ZINC000058174787   -0.1700
     17 C17        -9.5457   -1.1164   60.0565 C.2     1  ZINC000058174787    0.4000
     18 O18        -8.5548   -1.8103   59.9713 O.2     1  ZINC000058174787   -0.4200
     19 C19       -10.8634   -1.6701   59.7093 C.ar    1  ZINC000058174787   -0.1600
     20 C20       -11.1991   -1.8986   58.3706 C.ar    1  ZINC000058174787   -0.0600
     21 C21       -12.4354   -2.4181   58.0528 C.ar    1  ZINC000058174787   -0.1200
     22 C22       -13.3450   -2.7140   59.0554 C.ar    1  ZINC000058174787    0.0000
     23 Cl23      -14.8996   -3.3687   58.6458 Cl      1  ZINC000058174787   -0.0500
     24 C24       -13.0192   -2.4903   60.3836 C.ar    1  ZINC000058174787   -0.1200
     25 C25       -11.7847   -1.9762   60.7167 C.ar    1  ZINC000058174787   -0.0400
     26 C26        -7.4425    2.6519   51.8570 C.2     1  ZINC000058174787    0.0700
     27 N27        -6.4294    3.3395   51.2453 N.pl3   1  ZINC000058174787   -0.4500
     28 C28        -6.3672    3.7212   49.8322 C.3     1  ZINC000058174787    0.0600
     29 H29        -4.3516    5.3951   52.1286 H       1  ZINC000058174787    0.0900
     30 H30        -3.4436    3.9567   52.6525 H       1  ZINC000058174787    0.1000
     31 H31        -3.8629    4.1679   50.9356 H       1  ZINC000058174787    0.0800
     32 H32        -6.7474    2.8777   55.8987 H       1  ZINC000058174787    0.4200
     33 H33        -9.1517    1.6271   56.9671 H       1  ZINC000058174787    0.0900
     34 H34        -7.6375    0.7764   57.3570 H       1  ZINC000058174787    0.0900
     35 H35        -6.7332    2.8437   58.3770 H       1  ZINC000058174787    0.1200
     36 H36        -8.2391    3.7041   57.9766 H       1  ZINC000058174787    0.1200
     37 H37        -8.3021   -0.1957   62.2835 H       1  ZINC000058174787    0.0800
     38 H38        -9.1297    1.3780   62.3673 H       1  ZINC000058174787    0.0800
     39 H39       -10.0639   -0.1285   62.5283 H       1  ZINC000058174787    0.0800
     40 H40       -10.4915   -1.6680   57.5881 H       1  ZINC000058174787    0.1400
     41 H41       -12.6961   -2.5947   57.0196 H       1  ZINC000058174787    0.1400
     42 H42       -13.7330   -2.7233   61.1599 H       1  ZINC000058174787    0.1400
     43 H43       -11.5321   -1.8027   61.7522 H       1  ZINC000058174787    0.1500
     44 H44        -8.3480    2.2908   51.3921 H       1  ZINC000058174787    0.1900
     45 H45        -6.8221    4.7030   49.7007 H       1  ZINC000058174787    0.0900
     46 H46        -5.3262    3.7572   49.5112 H       1  ZINC000058174787    0.1000
     47 H47        -6.9069    2.9875   49.2336 H       1  ZINC000058174787    0.0900
@<TRIPOS>BOND
     1     1     2    1
     2     1    29    1
     3     1    30    1
     4     1    31    1
     5     2    27    1
     6     2     3    2
     7     3     4    1
     8     4     5    1
     9     4    26    2
    10     5     6    2
    11     5     7    2
    12     5     8   am
    13     8     9    1
    14     8    32    1
    15     9    10    1
    16     9    33    1
    17     9    34    1
    18    10    11    1
    19    10    35    1
    20    10    36    1
    21    11    12    2
    22    11    13    1
    23    13    14    1
    24    14    15    1
    25    14    16    1
    26    14    17    1
    27    16    37    1
    28    16    38    1
    29    16    39    1
    30    17    18    2
    31    17    19    1
    32    19    25   ar
    33    19    20   ar
    34    20    21   ar
    35    20    40    1
    36    21    22   ar
    37    21    41    1
    38    22    23    1
    39    22    24   ar
    40    24    25   ar
    41    24    42    1
    42    25    43    1
    43    26    27    1
    44    26    44    1
    45    27    28    1
    46    28    45    1
    47    28    46    1
    48    28    47    1
@<TRIPOS>SUBSTRUCTURE
     1 ZINC000058174787        1 TEMP              0 ****  ****    0 ROOT


##########                                Name:    ZINC000440379747
##########                DOCK_Rotatable_Bonds:                   8
##########                         Heavy_Atoms:                  27
##########                    Molecular_Weight:             394.452
##########                DOCK_Rotatable_Bonds:                   8
##########                       Formal_Charge:           0.0199995
##########                     HBond_Acceptors:                  10
##########                        HBond_Donors:                   3
##########                         Heavy_Atoms:                  27
##########                          Grid_Score:          -33.216820
##########                     Grid_vdw_energy:          -31.925837
##########                      Grid_es_energy:           -1.290981
##########           Internal_energy_repulsive:           20.854252

@<TRIPOS>MOLECULE
ZINC000440379747
 49 51 1 0 0
SMALL
USER_CHARGES


@<TRIPOS>ATOM
      1 C1        -10.0610   -0.8200   52.2492 C.3     1  ZINC000440379747   -0.1800
      2 C2        -10.3175   -0.8136   53.7342 C.2     1  ZINC000440379747    0.5200
      3 O3        -11.2667   -1.4171   54.1883 O.2     1  ZINC000440379747   -0.5200
      4 N4         -9.4924   -0.1371   54.5577 N.am    1  ZINC000440379747   -0.5500
      5 C5         -8.3179    0.6266   54.1284 C.3     1  ZINC000440379747    0.1100
      6 C6         -7.7184    1.2053   55.4203 C.3     1  ZINC000440379747   -0.0900
      7 C7         -8.6301    0.7085   56.5197 C.ar    1  ZINC000440379747   -0.1100
      8 C8         -8.5906    0.9068   57.8854 C.ar    1  ZINC000440379747   -0.0700
      9 C9         -9.5592    0.3349   58.7006 C.ar    1  ZINC000440379747    0.1200
     10 N10        -9.5209    0.5351   60.0840 N.am    1  ZINC000440379747   -0.6400
     11 C11        -9.2085   -0.4874   60.9045 C.2     1  ZINC000440379747    0.5100
     12 O12        -8.9604   -1.5822   60.4426 O.2     1  ZINC000440379747   -0.4900
     13 C13        -9.1676   -0.2735   62.3819 C.2     1  ZINC000440379747    0.5200
     14 O14        -8.2452   -0.7172   63.0340 O.2     1  ZINC000440379747   -0.5100
     15 N15       -10.1551    0.4123   62.9910 N.am    1  ZINC000440379747   -0.5800
     16 C16       -11.3292    1.0032   62.3234 C.3     1  ZINC000440379747    0.1000
     17 C17       -12.4070    1.1031   63.4316 C.3     1  ZINC000440379747   -0.1300
     18 C18       -11.5484    1.4780   64.6683 C.3     1  ZINC000440379747   -0.1600
     19 C19       -10.2431    0.6894   64.4321 C.3     1  ZINC000440379747    0.1500
     20 H20       -10.2676   -0.2447   64.9935 H       1  ZINC000440379747    0.1000
     21 C21        -9.0414    1.5287   64.8711 C.3     1  ZINC000440379747   -0.6500
     22 S22        -8.7109    1.2372   66.6308 S.o2    1  ZINC000440379747    2.6200
     23 N23       -10.1061    1.6971   67.3950 N.am    1  ZINC000440379747   -1.2500
     24 O24        -8.6090   -0.1553   66.8951 O.2     1  ZINC000440379747   -0.9500
     25 O25        -7.7316    2.1478   67.1116 O.2     1  ZINC000440379747   -0.9500
     26 C26       -10.5663   -0.4367   58.1346 C.ar    1  ZINC000440379747   -0.1000
     27 C27       -10.6038   -0.6333   56.7715 C.ar    1  ZINC000440379747   -0.1400
     28 C28        -9.6355   -0.0558   55.9476 C.ar    1  ZINC000440379747    0.1400
     29 H29       -10.8266   -1.4145   51.7508 H       1  ZINC000440379747    0.1000
     30 H30       -10.0909    0.2017   51.8709 H       1  ZINC000440379747    0.1000
     31 H31        -9.0799   -1.2520   52.0519 H       1  ZINC000440379747    0.1000
     32 H32        -7.5985   -0.0299   53.6388 H       1  ZINC000440379747    0.0900
     33 H33        -8.6151    1.4313   53.4560 H       1  ZINC000440379747    0.0900
     34 H34        -6.7050    0.8325   55.5693 H       1  ZINC000440379747    0.0900
     35 H35        -7.7225    2.2947   55.3863 H       1  ZINC000440379747    0.1000
     36 H36        -7.8054    1.5072   58.3206 H       1  ZINC000440379747    0.1400
     37 H37        -9.7194    1.4099   60.4531 H       1  ZINC000440379747    0.4200
     38 H38       -11.0879    1.9941   61.9385 H       1  ZINC000440379747    0.0800
     39 H39       -11.6730    0.3555   61.5170 H       1  ZINC000440379747    0.1000
     40 H40       -13.1290    1.8876   63.2049 H       1  ZINC000440379747    0.1000
     41 H41       -12.9063    0.1453   63.5784 H       1  ZINC000440379747    0.0800
     42 H42       -11.3561    2.5505   64.6935 H       1  ZINC000440379747    0.1000
     43 H43       -12.0331    1.1503   65.5880 H       1  ZINC000440379747    0.1000
     44 H44        -8.1670    1.2454   64.2853 H       1  ZINC000440379747    0.1500
     45 H45        -9.2586    2.5849   64.7123 H       1  ZINC000440379747    0.1400
     46 H46       -10.4277    2.6084   67.3107 H       1  ZINC000440379747    0.4100
     47 H47       -10.6020    1.0552   67.9269 H       1  ZINC000440379747    0.4200
     48 H48       -11.3211   -0.8836   58.7645 H       1  ZINC000440379747    0.1400
     49 H49       -11.3889   -1.2344   56.3372 H       1  ZINC000440379747    0.1500
@<TRIPOS>BOND
     1     1     2    1
     2     1    29    1
     3     1    30    1
     4     1    31    1
     5     2     3    2
     6     2     4   am
     7     4    28    1
     8     4     5    1
     9     5     6    1
    10     5    32    1
    11     5    33    1
    12     6     7    1
    13     6    34    1
    14     6    35    1
    15     7    28   ar
    16     7     8   ar
    17     8     9   ar
    18     8    36    1
    19     9    10    1
    20     9    26   ar
    21    10    11   am
    22    10    37    1
    23    11    12    2
    24    11    13    1
    25    13    14    2
    26    13    15   am
    27    15    19    1
    28    15    16    1
    29    16    17    1
    30    16    38    1
    31    16    39    1
    32    17    18    1
    33    17    40    1
    34    17    41    1
    35    18    19    1
    36    18    42    1
    37    18    43    1
    38    19    20    1
    39    19    21    1
    40    21    22    1
    41    21    44    1
    42    21    45    1
    43    22    23   am
    44    22    24    2
    45    22    25    2
    46    23    46    1
    47    23    47    1
    48    26    27   ar
    49    26    48    1
    50    27    28   ar
    51    27    49    1
@<TRIPOS>SUBSTRUCTURE
     1 ZINC000440379747        1 TEMP              0 ****  ****    0 ROOT


##########                                Name:    ZINC000512699033
##########                DOCK_Rotatable_Bonds:                   9
##########                         Heavy_Atoms:                  30
##########                    Molecular_Weight:              405.54
##########                DOCK_Rotatable_Bonds:                   9
##########                       Formal_Charge:           0.0199988
##########                     HBond_Acceptors:                   5
##########                        HBond_Donors:                   2
##########                         Heavy_Atoms:                  30
##########                          Grid_Score:          -33.203983
##########                     Grid_vdw_energy:          -33.511658
##########                      Grid_es_energy:            0.307676
##########           Internal_energy_repulsive:           10.879565

@<TRIPOS>MOLECULE
ZINC000512699033
 61 64 1 0 0
SMALL
USER_CHARGES


@<TRIPOS>ATOM
      1 O1        -10.0965    2.2774   56.1888 O.2     1  ZINC000512699033   -0.5100
      2 C2         -9.6728    1.5037   57.0212 C.2     1  ZINC000512699033    0.5200
      3 C3         -9.9097    1.7685   58.4857 C.3     1  ZINC000512699033   -0.1500
      4 C4         -8.8429    1.0489   59.3133 C.3     1  ZINC000512699033    0.1300
      5 N5         -8.9797    1.4276   60.7219 N.am    1  ZINC000512699033   -0.7300
      6 C6         -8.7527    0.5173   61.6895 C.2     1  ZINC000512699033    0.5200
      7 O7         -8.4367   -0.6157   61.3941 O.2     1  ZINC000512699033   -0.5300
      8 C8         -8.8917    0.9073   63.1386 C.3     1  ZINC000512699033   -0.1100
      9 C9        -10.3470    0.7319   63.5766 C.3     1  ZINC000512699033   -0.1100
     10 C10       -10.4880    1.1279   65.0477 C.3     1  ZINC000512699033   -0.1200
     11 C11        -9.5866    0.2368   65.9045 C.3     1  ZINC000512699033   -0.1200
     12 C12        -8.1311    0.4123   65.4663 C.3     1  ZINC000512699033   -0.1200
     13 C13        -7.9901    0.0162   63.9952 C.3     1  ZINC000512699033   -0.1000
     14 N14        -8.9950    0.4042   56.6363 N.am    1  ZINC000512699033   -0.6600
     15 C15        -8.7750    0.1584   55.2764 C.ar    1  ZINC000512699033    0.1700
     16 C16        -7.7916    0.8606   54.5926 C.ar    1  ZINC000512699033   -0.1400
     17 C17        -7.5766    0.6152   53.2503 C.ar    1  ZINC000512699033   -0.1000
     18 C18        -8.3398   -0.3283   52.5877 C.ar    1  ZINC000512699033   -0.1400
     19 C19        -9.3201   -1.0294   53.2659 C.ar    1  ZINC000512699033   -0.0900
     20 C20        -9.5361   -0.7927   54.6092 C.ar    1  ZINC000512699033   -0.1200
     21 C21       -10.6045   -1.5572   55.3475 C.3     1  ZINC000512699033    0.0900
     22 N22       -11.7606   -0.6813   55.5809 N.3     1  ZINC000512699033   -0.4700
     23 C23       -12.4141   -0.3151   54.3055 C.3     1  ZINC000512699033    0.0500
     24 C24       -13.8943   -0.1488   54.7196 C.3     1  ZINC000512699033   -0.0900
     25 C25       -14.0029   -1.0352   55.9444 C.ar    1  ZINC000512699033   -0.1400
     26 C26       -15.0971   -1.5482   56.6081 C.ar    1  ZINC000512699033   -0.0800
     27 C27       -14.9195   -2.3513   57.7205 C.ar    1  ZINC000512699033   -0.1400
     28 C28       -13.6424   -2.6391   58.1656 C.ar    1  ZINC000512699033   -0.0900
     29 C29       -12.5444   -2.1264   57.5064 C.ar    1  ZINC000512699033   -0.1400
     30 C30       -12.7150   -1.3142   56.3869 C.ar    1  ZINC000512699033    0.0900
     31 H31        -9.8544    2.8405   58.6748 H       1  ZINC000512699033    0.1100
     32 H32       -10.8967    1.4005   58.7665 H       1  ZINC000512699033    0.1000
     33 H33        -8.9707   -0.0289   59.2127 H       1  ZINC000512699033    0.0800
     34 H34        -7.8531    1.3323   58.9554 H       1  ZINC000512699033    0.0800
     35 H35        -9.2335    2.3335   60.9581 H       1  ZINC000512699033    0.4000
     36 H36        -8.5975    1.9494   63.2640 H       1  ZINC000512699033    0.1000
     37 H37       -10.9893    1.3667   62.9662 H       1  ZINC000512699033    0.0700
     38 H38       -10.6411   -0.3101   63.4511 H       1  ZINC000512699033    0.0700
     39 H39       -10.1940    2.1700   65.1733 H       1  ZINC000512699033    0.0600
     40 H40       -11.5248    1.0029   65.3599 H       1  ZINC000512699033    0.0700
     41 H41        -9.6870    0.5189   66.9525 H       1  ZINC000512699033    0.0600
     42 H42        -9.8807   -0.8053   65.7789 H       1  ZINC000512699033    0.0600
     43 H43        -7.8370    1.4542   65.5919 H       1  ZINC000512699033    0.0600
     44 H44        -7.4889   -0.2227   66.0768 H       1  ZINC000512699033    0.0700
     45 H45        -8.2843   -1.0258   63.8697 H       1  ZINC000512699033    0.0700
     46 H46        -6.9533    0.1412   63.6831 H       1  ZINC000512699033    0.0700
     47 H47        -8.6598   -0.2167   57.3018 H       1  ZINC000512699033    0.4200
     48 H48        -7.1955    1.5981   55.1096 H       1  ZINC000512699033    0.1500
     49 H49        -6.8118    1.1611   52.7179 H       1  ZINC000512699033    0.1300
     50 H50        -8.1702   -0.5177   51.5380 H       1  ZINC000512699033    0.1200
     51 H51        -9.9146   -1.7657   52.7455 H       1  ZINC000512699033    0.1200
     52 H52       -10.9138   -2.4163   54.7521 H       1  ZINC000512699033    0.0600
     53 H53       -10.2103   -1.9009   56.3038 H       1  ZINC000512699033    0.0900
     54 H54       -12.0126    0.6223   53.9206 H       1  ZINC000512699033    0.1000
     55 H55       -12.3053   -1.1139   53.5719 H       1  ZINC000512699033    0.0600
     56 H56       -14.1097    0.8890   54.9739 H       1  ZINC000512699033    0.0900
     57 H57       -14.5580   -0.4995   53.9292 H       1  ZINC000512699033    0.0800
     58 H58       -16.0940   -1.3226   56.2595 H       1  ZINC000512699033    0.1200
     59 H59       -15.7768   -2.7523   58.2406 H       1  ZINC000512699033    0.1300
     60 H60       -13.5040   -3.2673   59.0331 H       1  ZINC000512699033    0.1300
     61 H61       -11.5495   -2.3547   57.8593 H       1  ZINC000512699033    0.1200
@<TRIPOS>BOND
     1     1     2    2
     2     2     3    1
     3     2    14   am
     4     3     4    1
     5     3    31    1
     6     3    32    1
     7     4     5    1
     8     4    33    1
     9     4    34    1
    10     5     6   am
    11     5    35    1
    12     6     7    2
    13     6     8    1
    14     8    13    1
    15     8     9    1
    16     8    36    1
    17     9    10    1
    18     9    37    1
    19     9    38    1
    20    10    11    1
    21    10    39    1
    22    10    40    1
    23    11    12    1
    24    11    41    1
    25    11    42    1
    26    12    13    1
    27    12    43    1
    28    12    44    1
    29    13    45    1
    30    13    46    1
    31    14    15    1
    32    14    47    1
    33    15    20   ar
    34    15    16   ar
    35    16    17   ar
    36    16    48    1
    37    17    18   ar
    38    17    49    1
    39    18    19   ar
    40    18    50    1
    41    19    20   ar
    42    19    51    1
    43    20    21    1
    44    21    22    1
    45    21    52    1
    46    21    53    1
    47    22    30    1
    48    22    23    1
    49    23    24    1
    50    23    54    1
    51    23    55    1
    52    24    25    1
    53    24    56    1
    54    24    57    1
    55    25    30   ar
    56    25    26   ar
    57    26    27   ar
    58    26    58    1
    59    27    28   ar
    60    27    59    1
    61    28    29   ar
    62    28    60    1
    63    29    30   ar
    64    29    61    1
@<TRIPOS>SUBSTRUCTURE
     1 ZINC000512699033        1 TEMP              0 ****  ****    0 ROOT


##########                                Name:    ZINC000150894060
##########                DOCK_Rotatable_Bonds:                  10
##########                         Heavy_Atoms:                  27
##########                    Molecular_Weight:              366.42
##########                DOCK_Rotatable_Bonds:                  10
##########                       Formal_Charge:        -6.70552e-07
##########                     HBond_Acceptors:                   7
##########                        HBond_Donors:                   2
##########                         Heavy_Atoms:                  27
##########                          Grid_Score:          -33.191414
##########                     Grid_vdw_energy:          -31.605551
##########                      Grid_es_energy:           -1.585861
##########           Internal_energy_repulsive:           12.266089

@<TRIPOS>MOLECULE
ZINC000150894060
 49 51 1 0 0
SMALL
USER_CHARGES


@<TRIPOS>ATOM
      1 C1         -1.2101    5.2078   62.3707 C.3     1  ZINC000150894060   -0.1000
      2 C2         -1.0074    3.7275   62.1738 C.2     1  ZINC000150894060   -0.0800
      3 C3         -0.9626    3.0625   60.9821 C.2     1  ZINC000150894060   -0.1000
      4 C4         -1.1048    3.6654   59.6528 C.2     1  ZINC000150894060    0.6100
      5 O5         -1.1378    4.8761   59.5342 O.2     1  ZINC000150894060   -0.5100
      6 N6         -1.1989    2.8787   58.5626 N.am    1  ZINC000150894060   -0.7200
      7 C7         -1.3392    3.4811   57.2345 C.3     1  ZINC000150894060    0.1200
      8 C8          0.0269    3.9703   56.7495 C.3     1  ZINC000150894060   -0.1500
      9 C9         -0.1153    4.5769   55.3521 C.3     1  ZINC000150894060    0.1200
     10 N10         0.0821    3.5324   54.3439 N.am    1  ZINC000150894060   -0.7300
     11 C11         1.2063    3.5171   53.6008 C.2     1  ZINC000150894060    0.5600
     12 O12         2.0572    4.3689   53.7681 O.2     1  ZINC000150894060   -0.5300
     13 C13         1.4048    2.4640   52.5822 C.ar    1  ZINC000150894060   -0.1300
     14 C14         0.7370    2.5374   51.3589 C.ar    1  ZINC000150894060   -0.0900
     15 C15         0.9271    1.5517   50.4124 C.ar    1  ZINC000150894060   -0.0900
     16 C16         1.7772    0.4919   50.6740 C.ar    1  ZINC000150894060   -0.0800
     17 C17         1.9796   -0.5814   49.6358 C.3     1  ZINC000150894060    0.1700
     18 N18         0.6892   -1.1926   49.3075 N.pl3   1  ZINC000150894060   -0.3700
     19 C19        -0.2449   -1.5990   50.1925 C.2     1  ZINC000150894060    0.0500
     20 C20        -1.2851   -2.1057   49.4908 C.2     1  ZINC000150894060   -0.2700
     21 C21        -0.9760   -2.0054   48.1304 C.2     1  ZINC000150894060    0.0400
     22 N22         0.2046   -1.4526   48.0191 N.2     1  ZINC000150894060   -0.2900
     23 C23         2.4426    0.4135   51.8846 C.ar    1  ZINC000150894060   -0.1100
     24 C24         2.2655    1.3952   52.8375 C.ar    1  ZINC000150894060   -0.0600
     25 O25        -0.7644    1.7534   61.2419 O.3     1  ZINC000150894060   -0.1700
     26 C26        -0.6824    1.5704   62.5660 C.2     1  ZINC000150894060    0.0000
     27 C27        -0.8222    2.7662   63.1796 C.2     1  ZINC000150894060   -0.2300
     28 H28        -0.2427    5.7101   62.3705 H       1  ZINC000150894060    0.0800
     29 H29        -1.8239    5.6015   61.5606 H       1  ZINC000150894060    0.0900
     30 H30        -1.7101    5.3826   63.3234 H       1  ZINC000150894060    0.0700
     31 H31        -1.1737    1.9137   58.6572 H       1  ZINC000150894060    0.4100
     32 H32        -1.7275    2.7382   56.5378 H       1  ZINC000150894060    0.0800
     33 H33        -2.0286    4.3236   57.2887 H       1  ZINC000150894060    0.0800
     34 H34         0.4072    4.7261   57.4367 H       1  ZINC000150894060    0.0800
     35 H35         0.7212    3.1309   56.7122 H       1  ZINC000150894060    0.0800
     36 H36        -1.1116    5.0050   55.2415 H       1  ZINC000150894060    0.0800
     37 H37         0.6327    5.3581   55.2172 H       1  ZINC000150894060    0.0800
     38 H38        -0.5963    2.8519   54.2113 H       1  ZINC000150894060    0.4000
     39 H39         0.0726    3.3637   51.1536 H       1  ZINC000150894060    0.1300
     40 H40         0.4108    1.6073   49.4654 H       1  ZINC000150894060    0.1300
     41 H41         2.4121   -0.1410   48.7374 H       1  ZINC000150894060    0.1100
     42 H42         2.6533   -1.3434   50.0275 H       1  ZINC000150894060    0.1000
     43 H43        -0.1746   -1.5323   51.2681 H       1  ZINC000150894060    0.1700
     44 H44        -2.1932   -2.5156   49.9076 H       1  ZINC000150894060    0.1500
     45 H45        -1.6056   -2.3245   47.3128 H       1  ZINC000150894060    0.1800
     46 H46         3.1051   -0.4162   52.0825 H       1  ZINC000150894060    0.1300
     47 H47         2.7858    1.3329   53.7819 H       1  ZINC000150894060    0.1400
     48 H48        -0.5262    0.6235   63.0615 H       1  ZINC000150894060    0.2100
     49 H49        -0.8018    2.9472   64.2442 H       1  ZINC000150894060    0.1600
@<TRIPOS>BOND
     1     1     2    1
     2     1    28    1
     3     1    29    1
     4     1    30    1
     5     2    27    1
     6     2     3    2
     7     3     4    1
     8     3    25    1
     9     4     5    2
    10     4     6   am
    11     6     7    1
    12     6    31    1
    13     7     8    1
    14     7    32    1
    15     7    33    1
    16     8     9    1
    17     8    34    1
    18     8    35    1
    19     9    10    1
    20     9    36    1
    21     9    37    1
    22    10    11   am
    23    10    38    1
    24    11    12    2
    25    11    13    1
    26    13    24   ar
    27    13    14   ar
    28    14    15   ar
    29    14    39    1
    30    15    16   ar
    31    15    40    1
    32    16    17    1
    33    16    23   ar
    34    17    18    1
    35    17    41    1
    36    17    42    1
    37    18    22    1
    38    18    19    1
    39    19    20    2
    40    19    43    1
    41    20    21    1
    42    20    44    1
    43    21    22    2
    44    21    45    1
    45    23    24   ar
    46    23    46    1
    47    24    47    1
    48    25    26    1
    49    26    27    2
    50    26    48    1
    51    27    49    1
@<TRIPOS>SUBSTRUCTURE
     1 ZINC000150894060        1 TEMP              0 ****  ****    0 ROOT


##########                                Name:    ZINC000600609084
##########                DOCK_Rotatable_Bonds:                   8
##########                         Heavy_Atoms:                  30
##########                    Molecular_Weight:             422.548
##########                DOCK_Rotatable_Bonds:                   8
##########                       Formal_Charge:           0.0100005
##########                     HBond_Acceptors:                   6
##########                        HBond_Donors:                   2
##########                         Heavy_Atoms:                  30
##########                          Grid_Score:          -33.182579
##########                     Grid_vdw_energy:          -32.203354
##########                      Grid_es_energy:           -0.979225
##########           Internal_energy_repulsive:           19.752550

@<TRIPOS>MOLECULE
ZINC000600609084
 56 59 1 0 0
SMALL
USER_CHARGES


@<TRIPOS>ATOM
      1 O1        -13.4715   -2.1766   57.1919 O.2     1  ZINC000600609084   -0.5300
      2 C2        -12.3242   -1.8610   56.9570 C.2     1  ZINC000600609084    0.5200
      3 C3        -11.1886   -2.6197   57.5942 C.3     1  ZINC000600609084   -0.1500
      4 C4        -10.7768   -1.9252   58.8937 C.3     1  ZINC000600609084    0.1300
      5 N5         -9.5455   -1.1633   58.6713 N.am    1  ZINC000600609084   -1.1200
      6 S6         -9.4460    0.4133   59.1682 S.o2    1  ZINC000600609084    2.7000
      7 O7         -8.1011    0.8179   58.9525 O.2     1  ZINC000600609084   -0.9600
      8 O8        -10.5608    1.0849   58.5975 O.2     1  ZINC000600609084   -0.9500
      9 C9         -9.6964    0.4273   60.9123 C.ar    1  ZINC000600609084   -0.6700
     10 C10       -10.9473    0.7668   61.4233 C.ar    1  ZINC000600609084   -0.0400
     11 C11       -11.1742    0.7873   62.7654 C.ar    1  ZINC000600609084   -0.1200
     12 C12       -10.1335    0.4616   63.6514 C.ar    1  ZINC000600609084   -0.0100
     13 C13       -10.3296    0.4711   65.0430 C.ar    1  ZINC000600609084   -0.1200
     14 C14        -9.2983    0.1496   65.8706 C.ar    1  ZINC000600609084   -0.0900
     15 C15        -8.0468   -0.1899   65.3594 C.ar    1  ZINC000600609084   -0.1200
     16 C16        -7.8198   -0.2099   64.0177 C.ar    1  ZINC000600609084   -0.0900
     17 C17        -8.8608    0.1162   63.1314 C.ar    1  ZINC000600609084   -0.0800
     18 C18        -8.6662    0.1007   61.7401 C.ar    1  ZINC000600609084    0.0200
     19 N19       -12.0648   -0.8355   56.1218 N.am    1  ZINC000600609084   -0.7200
     20 C20       -13.1687   -0.0981   55.5025 C.3     1  ZINC000600609084    0.1400
     21 H21       -13.9710   -0.7847   55.2323 H       1  ZINC000600609084    0.1000
     22 C22       -13.6965    0.9736   56.4725 C.3     1  ZINC000600609084   -0.1300
     23 C23       -13.4976    2.3353   55.7755 C.3     1  ZINC000600609084   -0.1300
     24 C24       -12.3567    2.0791   54.7598 C.3     1  ZINC000600609084   -0.1200
     25 C25       -12.6679    0.6489   54.2492 C.3     1  ZINC000600609084   -0.0700
     26 H26       -13.4449    0.6773   53.4852 H       1  ZINC000600609084    0.0900
     27 C27       -11.4206   -0.0006   53.7072 C.ar    1  ZINC000600609084   -0.0600
     28 C28       -10.2318    0.0956   54.4059 C.ar    1  ZINC000600609084   -0.1100
     29 C29        -9.0877   -0.5001   53.9088 C.ar    1  ZINC000600609084   -0.1200
     30 C30        -9.1327   -1.1924   52.7130 C.ar    1  ZINC000600609084   -0.1200
     31 C31       -10.3218   -1.2893   52.0148 C.ar    1  ZINC000600609084   -0.1200
     32 C32       -11.4668   -0.6972   52.5141 C.ar    1  ZINC000600609084   -0.1100
     33 H33       -11.5094   -3.6383   57.8125 H       1  ZINC000600609084    0.1000
     34 H34       -10.3398   -2.6447   56.9108 H       1  ZINC000600609084    0.1000
     35 H35       -11.5703   -1.2487   59.2115 H       1  ZINC000600609084    0.0900
     36 H36       -10.6062   -2.6737   59.6675 H       1  ZINC000600609084    0.0800
     37 H37        -8.7883   -1.5823   58.2329 H       1  ZINC000600609084    0.4200
     38 H38       -11.7489    1.0179   60.7445 H       1  ZINC000600609084    0.1400
     39 H39       -12.1489    1.0528   63.1472 H       1  ZINC000600609084    0.1400
     40 H40       -11.2938    0.7325   65.4536 H       1  ZINC000600609084    0.1300
     41 H41        -9.4515    0.1581   66.9396 H       1  ZINC000600609084    0.1300
     42 H42        -7.2451   -0.4406   66.0382 H       1  ZINC000600609084    0.1300
     43 H43        -6.8448   -0.4746   63.6359 H       1  ZINC000600609084    0.1300
     44 H44        -7.7033   -0.1651   61.3295 H       1  ZINC000600609084    0.1500
     45 H45       -11.1472   -0.5859   55.9308 H       1  ZINC000600609084    0.4000
     46 H46       -14.7550    0.8074   56.6724 H       1  ZINC000600609084    0.0800
     47 H47       -13.1313    0.9448   57.4041 H       1  ZINC000600609084    0.0700
     48 H48       -14.4087    2.6356   55.2580 H       1  ZINC000600609084    0.0700
     49 H49       -13.2008    3.0945   56.4991 H       1  ZINC000600609084    0.0700
     50 H50       -12.3986    2.7986   53.9421 H       1  ZINC000600609084    0.0700
     51 H51       -11.3856    2.1102   55.2538 H       1  ZINC000600609084    0.0700
     52 H52       -10.1967    0.6364   55.3400 H       1  ZINC000600609084    0.1200
     53 H53        -8.1588   -0.4244   54.4543 H       1  ZINC000600609084    0.1200
     54 H54        -8.2387   -1.6571   52.3242 H       1  ZINC000600609084    0.1200
     55 H55       -10.3568   -1.8298   51.0804 H       1  ZINC000600609084    0.1200
     56 H56       -12.3957   -0.7729   51.9685 H       1  ZINC000600609084    0.1200
@<TRIPOS>BOND
     1     1     2    2
     2     2     3    1
     3     2    19   am
     4     3     4    1
     5     3    33    1
     6     3    34    1
     7     4     5    1
     8     4    35    1
     9     4    36    1
    10     5     6   am
    11     5    37    1
    12     6     7    2
    13     6     8    2
    14     6     9    1
    15     9    18   ar
    16     9    10   ar
    17    10    11   ar
    18    10    38    1
    19    11    12   ar
    20    11    39    1
    21    12    17   ar
    22    12    13   ar
    23    13    14   ar
    24    13    40    1
    25    14    15   ar
    26    14    41    1
    27    15    16   ar
    28    15    42    1
    29    16    17   ar
    30    16    43    1
    31    17    18   ar
    32    18    44    1
    33    19    20    1
    34    19    45    1
    35    20    21    1
    36    20    25    1
    37    20    22    1
    38    22    23    1
    39    22    46    1
    40    22    47    1
    41    23    24    1
    42    23    48    1
    43    23    49    1
    44    24    25    1
    45    24    50    1
    46    24    51    1
    47    25    26    1
    48    25    27    1
    49    27    32   ar
    50    27    28   ar
    51    28    29   ar
    52    28    52    1
    53    29    30   ar
    54    29    53    1
    55    30    31   ar
    56    30    54    1
    57    31    32   ar
    58    31    55    1
    59    32    56    1
@<TRIPOS>SUBSTRUCTURE
     1 ZINC000600609084        1 TEMP              0 ****  ****    0 ROOT


##########                                Name:     oleObject52.pdb
##########                DOCK_Rotatable_Bonds:                  10
##########                         Heavy_Atoms:                  38
##########                    Molecular_Weight:              533.07
##########                DOCK_Rotatable_Bonds:                  10
##########                       Formal_Charge:         0.000300027
##########                     HBond_Acceptors:                   8
##########                        HBond_Donors:                   0
##########                         Heavy_Atoms:                  38
##########                          Grid_Score:          -33.177471
##########                     Grid_vdw_energy:          -32.977131
##########                      Grid_es_energy:           -0.200341
##########           Internal_energy_repulsive:           63.056873

@<TRIPOS>MOLECULE
oleObject52.pdb
 71 74 1 0 0
SMALL
NO_CHARGES


@<TRIPOS>ATOM
      1 C          -9.6030    0.5166   54.6275 C.ar    1  UNL        -0.0596
      2 C         -10.0891    1.8232   54.4697 C.ar    1  UNL        -0.0314
      3 C          -9.4103    2.7419   53.6409 C.ar    1  UNL         0.0800
      4 C          -8.2351    2.3432   52.9626 C.ar    1  UNL         0.0089
      5 C          -7.7553    1.0271   53.1362 C.ar    1  UNL        -0.0541
      6 C          -8.4355    0.1195   53.9618 C.ar    1  UNL        -0.0617
      7 C          -7.4989    3.3505   52.0660 C.3     1  UNL         0.0953
      8 C          -8.4471    4.0749   51.0944 C.ar    1  UNL         0.0684
      9 C          -8.0508    5.2396   50.3901 C.ar    1  UNL        -0.0272
     10 C          -8.9727    5.8368   49.5101 C.ar    1  UNL        -0.0559
     11 C         -10.2433    5.2636   49.3584 C.ar    1  UNL        -0.0435
     12 C         -10.5509    4.1079   50.0914 C.ar    1  UNL         0.0272
     13 N          -9.6765    3.5292   50.9354 N.ar    1  UNL        -0.2587
     14 C          -6.6632    5.8506   50.5429 C.3     1  UNL        -0.0379
     15 N          -6.5619    4.2504   52.7974 N.am    1  UNL        -0.2917
     16 C          -5.1893    4.2062   52.5303 C.2     1  UNL         0.2180
     17 O          -4.7732    3.6364   51.5352 O.2     1  UNL        -0.2772
     18 C          -4.2769    5.1713   53.3297 C.3     1  UNL         0.0385
     19 C          -3.0877    5.6832   52.4813 C.3     1  UNL        -0.0289
     20 C          -2.0105    4.5962   52.2759 C.3     1  UNL        -0.0010
     21 N          -1.5127    4.0726   53.5691 N.4     1  UNL        -0.3010
     22 C          -2.5927    3.5360   54.4261 C.3     1  UNL        -0.0010
     23 C          -3.7405    4.5517   54.6474 C.3     1  UNL        -0.0289
     24 C          -0.3946    3.1109   53.4467 C.3     1  UNL         0.0222
     25 C           0.9146    3.7513   52.9412 C.3     1  UNL         0.0661
     26 O           1.8338    2.6877   52.6348 O.3     1  UNL        -0.3432
     27 C           1.5559    1.6700   51.7430 C.ar    1  UNL         0.0937
     28 C           0.7490    1.8727   50.6037 C.ar    1  UNL        -0.0289
     29 C           0.4911    0.8103   49.7215 C.ar    1  UNL        -0.0417
     30 C           1.0352   -0.4622   49.9674 C.ar    1  UNL         0.0537
     31 C           1.8398   -0.6683   51.1008 C.ar    1  UNL        -0.0230
     32 C           2.0994    0.3923   51.9847 C.ar    1  UNL         0.0721
     33 CL          3.1080    0.0954   53.3883 Cl      1  UNL        -0.0814
     34 C           0.7703   -1.5457   49.0651 C.1     1  UNL         0.0992
     35 N           0.5498   -2.4129   48.3326 N.1     1  UNL        -0.1924
     36 C          -7.1481    5.1411   53.8226 C.3     1  UNL         0.0037
     37 O          -9.8652    4.0391   53.4761 O.3     1  UNL        -0.3490
     38 C         -11.0254    4.5690   54.1391 C.3     1  UNL         0.0422
     39 H         -10.1299   -0.1857   55.2670 H       1  UNL         0.0624
     40 H         -10.9928    2.1092   54.9971 H       1  UNL         0.0651
     41 H          -6.8521    0.6976   52.6342 H       1  UNL         0.0627
     42 H          -8.0565   -0.8910   54.0854 H       1  UNL         0.0623
     43 H          -6.8549    2.7284   51.4346 H       1  UNL         0.0627
     44 H          -8.7077    6.7279   48.9481 H       1  UNL         0.0627
     45 H         -10.9731    5.7019   48.6842 H       1  UNL         0.0639
     46 H         -11.5248    3.6288   49.9990 H       1  UNL         0.0840
     47 H          -6.4152    6.0112   51.5975 H       1  UNL         0.0280
     48 H          -6.5897    6.8218   50.0382 H       1  UNL         0.0280
     49 H          -5.8972    5.1945   50.1107 H       1  UNL         0.0280
     50 H          -4.8812    6.0357   53.6243 H       1  UNL         0.0402
     51 H          -2.6279    6.5392   52.9920 H       1  UNL         0.0288
     52 H          -3.4350    6.0531   51.5098 H       1  UNL         0.0288
     53 H          -1.1920    5.0405   51.6978 H       1  UNL         0.0431
     54 H          -2.4329    3.7745   51.6822 H       1  UNL         0.0431
     55 H          -2.1841    3.2566   55.4057 H       1  UNL         0.0431
     56 H          -2.9976    2.6224   53.9731 H       1  UNL         0.0431
     57 H          -3.3625    5.3609   55.2857 H       1  UNL         0.0288
     58 H          -4.5591    4.0752   55.2020 H       1  UNL         0.0288
     59 H          -0.6777    2.2929   52.7712 H       1  UNL         0.0455
     60 H          -0.1904    2.6694   54.4309 H       1  UNL         0.0455
     61 H           1.3296    4.3989   53.7241 H       1  UNL         0.0586
     62 H           0.7219    4.3494   52.0424 H       1  UNL         0.0586
     63 H           0.3176    2.8456   50.3910 H       1  UNL         0.0651
     64 H          -0.1319    0.9779   48.8466 H       1  UNL         0.0638
     65 H           2.2642   -1.6493   51.2978 H       1  UNL         0.0653
     66 H          -8.0643    4.7056   54.2376 H       1  UNL         0.0433
     67 H          -7.3861    6.1161   53.3800 H       1  UNL         0.0433
     68 H          -6.4496    5.2773   54.6562 H       1  UNL         0.0433
     69 H         -11.1705    5.6174   53.8508 H       1  UNL         0.0535
     70 H         -10.8995    4.5223   55.2282 H       1  UNL         0.0535
     71 H         -11.9218    4.0036   53.8549 H       1  UNL         0.0535
@<TRIPOS>BOND
     1     1     2   ar
     2     1     6   ar
     3     1    39    1
     4     2     3   ar
     5     2    40    1
     6     3     4   ar
     7     3    37    1
     8     4     5   ar
     9     4     7    1
    10     5     6   ar
    11     5    41    1
    12     6    42    1
    13     7     8    1
    14     7    15    1
    15     7    43    1
    16     8     9   ar
    17     8    13   ar
    18     9    10   ar
    19     9    14    1
    20    10    11   ar
    21    10    44    1
    22    11    12   ar
    23    11    45    1
    24    12    13   ar
    25    12    46    1
    26    14    47    1
    27    14    48    1
    28    14    49    1
    29    15    16   am
    30    15    36    1
    31    16    17    2
    32    16    18    1
    33    18    19    1
    34    18    23    1
    35    18    50    1
    36    19    20    1
    37    19    51    1
    38    19    52    1
    39    20    21    1
    40    20    53    1
    41    20    54    1
    42    21    22    1
    43    21    24    1
    44    22    23    1
    45    22    55    1
    46    22    56    1
    47    23    57    1
    48    23    58    1
    49    24    25    1
    50    24    59    1
    51    24    60    1
    52    25    26    1
    53    25    61    1
    54    25    62    1
    55    26    27    1
    56    27    28   ar
    57    27    32   ar
    58    28    29   ar
    59    28    63    1
    60    29    30   ar
    61    29    64    1
    62    30    31   ar
    63    30    34    1
    64    31    32   ar
    65    31    65    1
    66    32    33    1
    67    34    35    3
    68    36    66    1
    69    36    67    1
    70    36    68    1
    71    37    38    1
    72    38    69    1
    73    38    70    1
    74    38    71    1
@<TRIPOS>SUBSTRUCTURE
     1 UNL         1 TEMP              0 ****  ****    0 ROOT


##########                                Name:    ZINC000124554441
##########                DOCK_Rotatable_Bonds:                   9
##########                         Heavy_Atoms:                  26
##########                    Molecular_Weight:             375.898
##########                DOCK_Rotatable_Bonds:                   9
##########                       Formal_Charge:         -0.00999991
##########                     HBond_Acceptors:                   6
##########                        HBond_Donors:                   1
##########                         Heavy_Atoms:                  26
##########                          Grid_Score:          -33.093819
##########                     Grid_vdw_energy:          -32.124939
##########                      Grid_es_energy:           -0.968881
##########           Internal_energy_repulsive:           14.807467

@<TRIPOS>MOLECULE
ZINC000124554441
 52 53 1 0 0
SMALL
USER_CHARGES


@<TRIPOS>ATOM
      1 C1         -6.9820    2.9464   52.1381 C.3     1  ZINC000124554441   -0.1500
      2 C2         -7.3482    2.5270   53.5632 C.3     1  ZINC000124554441   -0.1300
      3 C3         -7.5681    1.0136   53.6089 C.3     1  ZINC000124554441   -0.1200
      4 C4         -8.9324    0.6780   53.0033 C.3     1  ZINC000124554441   -0.1200
      5 C5         -9.2390   -0.8042   53.2269 C.3     1  ZINC000124554441   -0.1300
      6 C6        -10.2842   -0.9473   54.3349 C.3     1  ZINC000124554441    0.1200
      7 N7         -9.6669   -0.6507   55.6299 N.am    1  ZINC000124554441   -0.7300
      8 C8        -10.3630   -0.8420   56.7681 C.2     1  ZINC000124554441    0.5200
      9 O9        -11.5011   -1.2584   56.7200 O.2     1  ZINC000124554441   -0.5300
     10 C10        -9.7273   -0.5386   58.1003 C.3     1  ZINC000124554441   -0.1200
     11 H11        -9.1145   -1.3843   58.4120 H       1  ZINC000124554441    0.1000
     12 C12        -8.8502    0.7093   57.9752 C.3     1  ZINC000124554441   -0.1000
     13 C13        -8.1782    0.9993   59.3192 C.3     1  ZINC000124554441   -0.1400
     14 C14        -9.2542    1.2686   60.3760 C.3     1  ZINC000124554441    0.0900
     15 N15       -10.1875    0.1341   60.4003 N.am    1  ZINC000124554441   -0.6000
     16 C16       -10.4578   -0.5082   61.5539 C.2     1  ZINC000124554441    0.5600
     17 O17       -11.2317   -1.4453   61.5609 O.2     1  ZINC000124554441   -0.5200
     18 C18        -9.8125   -0.0725   62.8117 C.ar    1  ZINC000124554441   -0.0900
     19 C19        -8.4588   -0.3364   63.0293 C.ar    1  ZINC000124554441   -0.0900
     20 C20        -7.8569    0.0687   64.1999 C.ar    1  ZINC000124554441   -0.0600
     21 C21        -8.6005    0.7435   65.1706 C.ar    1  ZINC000124554441    0.0100
     22 C22        -7.9748    1.1648   66.3878 C.1     1  ZINC000124554441    0.2400
     23 N23        -7.4783    1.4990   67.3535 N.1     1  ZINC000124554441   -0.3800
     24 C24        -9.9562    1.0080   64.9531 C.ar    1  ZINC000124554441    0.0000
     25 Cl25      -10.8816    1.8471   66.1586 Cl      1  ZINC000124554441   -0.0400
     26 C26       -10.5560    0.6073   63.7781 C.ar    1  ZINC000124554441   -0.0600
     27 C27       -10.8209   -0.2875   59.1433 C.3     1  ZINC000124554441    0.1200
     28 H28        -6.0679    2.4370   51.8330 H       1  ZINC000124554441    0.0500
     29 H29        -7.7919    2.6762   51.4604 H       1  ZINC000124554441    0.0500
     30 H30        -6.8254    4.0245   52.1055 H       1  ZINC000124554441    0.0500
     31 H31        -6.5383    2.7971   54.2409 H       1  ZINC000124554441    0.0600
     32 H32        -8.2624    3.0364   53.8683 H       1  ZINC000124554441    0.0600
     33 H33        -6.7846    0.5152   53.0382 H       1  ZINC000124554441    0.0600
     34 H34        -7.5363    0.6729   54.6439 H       1  ZINC000124554441    0.0600
     35 H35        -9.7015    1.2842   53.4819 H       1  ZINC000124554441    0.0700
     36 H36        -8.9170    0.8885   51.9339 H       1  ZINC000124554441    0.0700
     37 H37        -9.6254   -1.2384   52.3047 H       1  ZINC000124554441    0.0700
     38 H38        -8.3265   -1.3240   53.5188 H       1  ZINC000124554441    0.0700
     39 H39       -11.1027   -0.2504   54.1544 H       1  ZINC000124554441    0.0700
     40 H40       -10.6699   -1.9668   54.3413 H       1  ZINC000124554441    0.0700
     41 H41        -8.7571   -0.3165   55.6683 H       1  ZINC000124554441    0.4000
     42 H42        -8.0863    0.5416   57.2160 H       1  ZINC000124554441    0.0800
     43 H43        -9.4678    1.5599   57.6869 H       1  ZINC000124554441    0.0800
     44 H44        -7.5800    0.1392   59.6200 H       1  ZINC000124554441    0.0700
     45 H45        -7.5355    1.8745   59.2233 H       1  ZINC000124554441    0.0900
     46 H46        -8.7862    1.3778   61.3543 H       1  ZINC000124554441    0.1000
     47 H47        -9.7944    2.1808   60.1231 H       1  ZINC000124554441    0.0800
     48 H48        -7.8835   -0.8588   62.2793 H       1  ZINC000124554441    0.1500
     49 H49        -6.8098   -0.1357   64.3674 H       1  ZINC000124554441    0.1500
     50 H50       -11.6030    0.8112   63.6094 H       1  ZINC000124554441    0.1500
     51 H51       -11.4890    0.4976   58.7895 H       1  ZINC000124554441    0.0800
     52 H52       -11.3866   -1.2045   59.3087 H       1  ZINC000124554441    0.1000
@<TRIPOS>BOND
     1     1     2    1
     2     1    28    1
     3     1    29    1
     4     1    30    1
     5     2     3    1
     6     2    31    1
     7     2    32    1
     8     3     4    1
     9     3    33    1
    10     3    34    1
    11     4     5    1
    12     4    35    1
    13     4    36    1
    14     5     6    1
    15     5    37    1
    16     5    38    1
    17     6     7    1
    18     6    39    1
    19     6    40    1
    20     7     8   am
    21     7    41    1
    22     8     9    2
    23     8    10    1
    24    10    11    1
    25    10    27    1
    26    10    12    1
    27    12    13    1
    28    12    42    1
    29    12    43    1
    30    13    14    1
    31    13    44    1
    32    13    45    1
    33    14    15    1
    34    14    46    1
    35    14    47    1
    36    15    16   am
    37    15    27    1
    38    16    17    2
    39    16    18    1
    40    18    26   ar
    41    18    19   ar
    42    19    20   ar
    43    19    48    1
    44    20    21   ar
    45    20    49    1
    46    21    22    1
    47    21    24   ar
    48    22    23    3
    49    24    25    1
    50    24    26   ar
    51    26    50    1
    52    27    51    1
    53    27    52    1
@<TRIPOS>SUBSTRUCTURE
     1 ZINC000124554441        1 TEMP              0 ****  ****    0 ROOT


##########                                Name:    ZINC000435005159
##########                DOCK_Rotatable_Bonds:                  12
##########                         Heavy_Atoms:                  30
##########                    Molecular_Weight:             401.508
##########                DOCK_Rotatable_Bonds:                  12
##########                       Formal_Charge:          -0.0399985
##########                     HBond_Acceptors:                   5
##########                        HBond_Donors:                   2
##########                         Heavy_Atoms:                  30
##########                          Grid_Score:          -33.078373
##########                     Grid_vdw_energy:          -32.922237
##########                      Grid_es_energy:           -0.156135
##########           Internal_energy_repulsive:           13.863559

@<TRIPOS>MOLECULE
ZINC000435005159
 57 59 1 0 0
SMALL
USER_CHARGES


@<TRIPOS>ATOM
      1 O1        -11.0597   -2.7897   59.7103 O.2     1  ZINC000435005159   -0.5300
      2 C2        -11.9212   -1.9635   59.9255 C.2     1  ZINC000435005159    0.5200
      3 C3        -13.3707   -2.3109   59.7030 C.3     1  ZINC000435005159   -0.1400
      4 C4        -13.5124   -3.0958   58.3973 C.3     1  ZINC000435005159   -0.1200
      5 C5        -13.9069   -2.1412   57.2687 C.3     1  ZINC000435005159    0.1200
      6 N6        -12.8062   -2.0406   56.3071 N.am    1  ZINC000435005159   -0.7200
      7 C7        -12.7457   -0.9948   55.4591 C.2     1  ZINC000435005159    0.5600
      8 O8        -13.6050   -0.1357   55.4913 O.2     1  ZINC000435005159   -0.5300
      9 C9        -11.6340   -0.8924   54.4899 C.ar    1  ZINC000435005159   -0.1900
     10 C10       -11.7003    0.0121   53.4236 C.ar    1  ZINC000435005159   -0.0200
     11 C11       -10.6329    0.0693   52.5445 C.ar    1  ZINC000435005159   -0.1800
     12 C12        -9.5452   -0.7610   52.7455 C.ar    1  ZINC000435005159    0.1200
     13 N13        -9.5104   -1.6046   53.7597 N.ar    1  ZINC000435005159   -0.4900
     14 C14       -10.4981   -1.6919   54.6259 C.ar    1  ZINC000435005159    0.1400
     15 N15       -11.5828   -0.7366   60.3689 N.am    1  ZINC000435005159   -0.7300
     16 C16       -10.1738   -0.3989   60.5851 C.3     1  ZINC000435005159    0.1900
     17 H17        -9.5533   -1.2663   60.3595 H       1  ZINC000435005159    0.1000
     18 C18        -9.7809    0.7613   59.6684 C.3     1  ZINC000435005159   -0.1200
     19 C19        -8.4635    0.4312   58.9640 C.3     1  ZINC000435005159   -0.0800
     20 C20        -7.8872    1.6869   58.3621 C.ar    1  ZINC000435005159   -0.0800
     21 C21        -7.7153    1.7816   56.9937 C.ar    1  ZINC000435005159   -0.1200
     22 C22        -7.1868    2.9335   56.4416 C.ar    1  ZINC000435005159   -0.1200
     23 C23        -6.8305    3.9907   57.2578 C.ar    1  ZINC000435005159   -0.1200
     24 C24        -7.0033    3.8963   58.6260 C.ar    1  ZINC000435005159   -0.1200
     25 C25        -7.5358    2.7461   59.1778 C.ar    1  ZINC000435005159   -0.1200
     26 C26        -9.9688    0.0050   62.0225 C.ar    1  ZINC000435005159   -0.1000
     27 C27        -8.7825   -0.2996   62.6634 C.ar    1  ZINC000435005159   -0.1100
     28 C28        -8.5943    0.0709   63.9818 C.ar    1  ZINC000435005159   -0.1200
     29 C29        -9.5924    0.7463   64.6592 C.ar    1  ZINC000435005159   -0.1200
     30 C30       -10.7783    1.0516   64.0179 C.ar    1  ZINC000435005159   -0.1200
     31 C31       -10.9647    0.6850   62.6982 C.ar    1  ZINC000435005159   -0.1000
     32 H32       -13.7302   -2.9190   60.5333 H       1  ZINC000435005159    0.1000
     33 H33       -13.9587   -1.3952   59.6421 H       1  ZINC000435005159    0.1000
     34 H34       -12.5626   -3.5724   58.1549 H       1  ZINC000435005159    0.0800
     35 H35       -14.2822   -3.8587   58.5138 H       1  ZINC000435005159    0.0800
     36 H36       -14.7957   -2.5213   56.7652 H       1  ZINC000435005159    0.0700
     37 H37       -14.1179   -1.1555   57.6836 H       1  ZINC000435005159    0.0700
     38 H38       -12.1211   -2.7268   56.2806 H       1  ZINC000435005159    0.4000
     39 H39       -12.5626    0.6488   53.2902 H       1  ZINC000435005159    0.1500
     40 H40       -10.6493    0.7547   51.7102 H       1  ZINC000435005159    0.1500
     41 H41        -8.7108   -0.7184   52.0612 H       1  ZINC000435005159    0.1600
     42 H42       -10.4328   -2.3946   55.4433 H       1  ZINC000435005159    0.1600
     43 H43       -12.2721   -0.0773   60.5447 H       1  ZINC000435005159    0.4000
     44 H44       -10.5619    0.9167   58.9240 H       1  ZINC000435005159    0.0700
     45 H45        -9.6587    1.6677   60.2614 H       1  ZINC000435005159    0.0800
     46 H46        -7.7591    0.0179   59.6858 H       1  ZINC000435005159    0.0700
     47 H47        -8.6460   -0.2989   58.1754 H       1  ZINC000435005159    0.0700
     48 H48        -7.9936    0.9556   56.3560 H       1  ZINC000435005159    0.1200
     49 H49        -7.0517    3.0072   55.3726 H       1  ZINC000435005159    0.1200
     50 H50        -6.4170    4.8904   56.8265 H       1  ZINC000435005159    0.1200
     51 H51        -6.7247    4.7222   59.2638 H       1  ZINC000435005159    0.1200
     52 H52        -7.6708    2.6724   60.2468 H       1  ZINC000435005159    0.1200
     53 H53        -8.0027   -0.8273   62.1343 H       1  ZINC000435005159    0.1200
     54 H54        -7.6679   -0.1678   64.4829 H       1  ZINC000435005159    0.1200
     55 H55        -9.4456    1.0351   65.6894 H       1  ZINC000435005159    0.1200
     56 H56       -11.5581    1.5791   64.5471 H       1  ZINC000435005159    0.1200
     57 H57       -11.8912    0.9236   62.1971 H       1  ZINC000435005159    0.1200
@<TRIPOS>BOND
     1     1     2    2
     2     2     3    1
     3     2    15   am
     4     3     4    1
     5     3    32    1
     6     3    33    1
     7     4     5    1
     8     4    34    1
     9     4    35    1
    10     5     6    1
    11     5    36    1
    12     5    37    1
    13     6     7   am
    14     6    38    1
    15     7     8    2
    16     7     9    1
    17     9    14   ar
    18     9    10   ar
    19    10    11   ar
    20    10    39    1
    21    11    12   ar
    22    11    40    1
    23    12    13   ar
    24    12    41    1
    25    13    14   ar
    26    14    42    1
    27    15    16    1
    28    15    43    1
    29    16    17    1
    30    16    18    1
    31    16    26    1
    32    18    19    1
    33    18    44    1
    34    18    45    1
    35    19    20    1
    36    19    46    1
    37    19    47    1
    38    20    25   ar
    39    20    21   ar
    40    21    22   ar
    41    21    48    1
    42    22    23   ar
    43    22    49    1
    44    23    24   ar
    45    23    50    1
    46    24    25   ar
    47    24    51    1
    48    25    52    1
    49    26    31   ar
    50    26    27   ar
    51    27    28   ar
    52    27    53    1
    53    28    29   ar
    54    28    54    1
    55    29    30   ar
    56    29    55    1
    57    30    31   ar
    58    30    56    1
    59    31    57    1
@<TRIPOS>SUBSTRUCTURE
     1 ZINC000435005159        1 TEMP              0 ****  ****    0 ROOT


##########                                Name:    ZINC001386869844
##########                DOCK_Rotatable_Bonds:                   9
##########                         Heavy_Atoms:                  25
##########                    Molecular_Weight:             345.485
##########                DOCK_Rotatable_Bonds:                   9
##########                       Formal_Charge:          -0.0300003
##########                     HBond_Acceptors:                   5
##########                        HBond_Donors:                   2
##########                         Heavy_Atoms:                  25
##########                          Grid_Score:          -33.057304
##########                     Grid_vdw_energy:          -30.801086
##########                      Grid_es_energy:           -2.256219
##########           Internal_energy_repulsive:           28.737270

@<TRIPOS>MOLECULE
ZINC001386869844
 56 58 1 0 0
SMALL
USER_CHARGES


@<TRIPOS>ATOM
      1 C1        -10.1665   -1.0528   54.9467 C.3     1  ZINC001386869844    0.0600
      2 N2         -9.3856    0.0920   54.4713 N.am    1  ZINC001386869844   -0.6200
      3 C3         -9.6262    1.4251   55.0290 C.3     1  ZINC001386869844    0.1100
      4 C4         -8.6971    1.6537   56.2229 C.3     1  ZINC001386869844    0.1000
      5 N5         -9.4399    1.4403   57.4675 N.am    1  ZINC001386869844   -0.7300
      6 C6         -8.7810    1.3632   58.6408 C.2     1  ZINC001386869844    0.5200
      7 O7         -7.5728    1.4655   58.6656 O.2     1  ZINC001386869844   -0.5300
      8 C8         -9.5451    1.1437   59.9210 C.3     1  ZINC001386869844   -0.1300
      9 C9         -9.6472   -0.3566   60.2030 C.3     1  ZINC001386869844   -0.0100
     10 C10       -10.4507   -1.0313   59.0896 C.3     1  ZINC001386869844   -0.1500
     11 C11        -8.2431   -0.9620   60.2575 C.3     1  ZINC001386869844   -0.1600
     12 C12       -10.3498   -0.5767   61.5443 C.3     1  ZINC001386869844   -0.1500
     13 C13       -10.9204    0.6533   62.2531 C.3     1  ZINC001386869844   -0.1900
     14 C14        -9.6645   -0.0309   62.7987 C.3     1  ZINC001386869844   -0.1800
     15 C15        -8.4459   -0.0814   53.5208 C.2     1  ZINC001386869844    0.5900
     16 O16        -8.2460   -1.1887   53.0576 O.2     1  ZINC001386869844   -0.5200
     17 C17        -7.6640    1.0648   53.0449 C.2     1  ZINC001386869844   -0.0600
     18 C18        -8.0056    1.9113   52.0093 C.2     1  ZINC001386869844   -0.0900
     19 C19        -6.9853    2.8525   51.9000 C.2     1  ZINC001386869844   -0.1700
     20 C20        -6.0526    2.5744   52.8493 C.2     1  ZINC001386869844    0.0500
     21 C21        -4.7871    3.3750   53.0454 C.3     1  ZINC001386869844   -0.0600
     22 C22        -4.5503    4.2216   51.7892 C.3     1  ZINC001386869844   -0.1100
     23 C23        -5.8309    4.9829   51.4363 C.3     1  ZINC001386869844   -0.1200
     24 C24        -6.8863    3.9964   50.9218 C.3     1  ZINC001386869844   -0.0500
     25 N25        -6.4583    1.4956   53.5544 N.pl3   1  ZINC001386869844   -0.5400
     26 H26       -11.0035   -1.2275   54.2706 H       1  ZINC001386869844    0.0600
     27 H27        -9.5320   -1.9385   54.9758 H       1  ZINC001386869844    0.0800
     28 H28       -10.5451   -0.8440   55.9472 H       1  ZINC001386869844    0.0900
     29 H29       -10.6633    1.5003   55.3560 H       1  ZINC001386869844    0.1000
     30 H30        -9.4301    2.1788   54.2664 H       1  ZINC001386869844    0.0900
     31 H31        -8.3172    2.6750   56.1972 H       1  ZINC001386869844    0.0700
     32 H32        -7.8628    0.9542   56.1732 H       1  ZINC001386869844    0.0700
     33 H33       -10.4059    1.3544   57.4472 H       1  ZINC001386869844    0.4000
     34 H34        -9.0241    1.6334   60.7437 H       1  ZINC001386869844    0.0900
     35 H35       -10.5460    1.5640   59.8234 H       1  ZINC001386869844    0.0900
     36 H36        -9.9502   -0.8745   58.1341 H       1  ZINC001386869844    0.0800
     37 H37       -10.5235   -2.1002   59.2906 H       1  ZINC001386869844    0.0500
     38 H38       -11.4511   -0.6000   59.0508 H       1  ZINC001386869844    0.0500
     39 H39        -7.6707   -0.4813   61.0507 H       1  ZINC001386869844    0.0500
     40 H40        -8.3159   -2.0309   60.4585 H       1  ZINC001386869844    0.0500
     41 H41        -7.7426   -0.8052   59.3020 H       1  ZINC001386869844    0.0800
     42 H42       -10.9006   -1.5125   61.6386 H       1  ZINC001386869844    0.1000
     43 H43       -10.7953    1.6193   61.7639 H       1  ZINC001386869844    0.1000
     44 H44       -11.8465    0.5266   62.8139 H       1  ZINC001386869844    0.0900
     45 H45        -9.7648   -0.6075   63.7183 H       1  ZINC001386869844    0.0900
     46 H46        -8.7132    0.4849   62.6684 H       1  ZINC001386869844    0.0900
     47 H47        -8.8952    1.8541   51.3994 H       1  ZINC001386869844    0.1500
     48 H48        -4.8959    4.0270   53.9121 H       1  ZINC001386869844    0.0800
     49 H49        -3.9451    2.6995   53.1968 H       1  ZINC001386869844    0.0800
     50 H50        -3.7453    4.9321   51.9766 H       1  ZINC001386869844    0.0700
     51 H51        -4.2743    3.5709   50.9595 H       1  ZINC001386869844    0.0700
     52 H52        -6.2091    5.4893   52.3244 H       1  ZINC001386869844    0.0600
     53 H53        -5.6142    5.7195   50.6626 H       1  ZINC001386869844    0.0700
     54 H54        -6.5894    3.6184   49.9435 H       1  ZINC001386869844    0.0700
     55 H55        -7.8510    4.4981   50.8447 H       1  ZINC001386869844    0.0700
     56 H56        -5.9796    1.0906   54.2945 H       1  ZINC001386869844    0.4200
@<TRIPOS>BOND
     1     1     2    1
     2     1    26    1
     3     1    27    1
     4     1    28    1
     5     2     3    1
     6     2    15   am
     7     3     4    1
     8     3    29    1
     9     3    30    1
    10     4     5    1
    11     4    31    1
    12     4    32    1
    13     5     6   am
    14     5    33    1
    15     6     7    2
    16     6     8    1
    17     8     9    1
    18     8    34    1
    19     8    35    1
    20     9    10    1
    21     9    11    1
    22     9    12    1
    23    10    36    1
    24    10    37    1
    25    10    38    1
    26    11    39    1
    27    11    40    1
    28    11    41    1
    29    12    14    1
    30    12    13    1
    31    12    42    1
    32    13    14    1
    33    13    43    1
    34    13    44    1
    35    14    45    1
    36    14    46    1
    37    15    16    2
    38    15    17    1
    39    17    25    1
    40    17    18    2
    41    18    19    1
    42    18    47    1
    43    19    24    1
    44    19    20    2
    45    20    21    1
    46    20    25    1
    47    21    22    1
    48    21    48    1
    49    21    49    1
    50    22    23    1
    51    22    50    1
    52    22    51    1
    53    23    24    1
    54    23    52    1
    55    23    53    1
    56    24    54    1
    57    24    55    1
    58    25    56    1
@<TRIPOS>SUBSTRUCTURE
     1 ZINC001386869844        1 TEMP              0 ****  ****    0 ROOT


##########                                Name:    ZINC001109082135
##########                DOCK_Rotatable_Bonds:                   9
##########                         Heavy_Atoms:                  27
##########                    Molecular_Weight:             373.455
##########                DOCK_Rotatable_Bonds:                   9
##########                       Formal_Charge:          -0.0100003
##########                     HBond_Acceptors:                   8
##########                        HBond_Donors:                   3
##########                         Heavy_Atoms:                  27
##########                          Grid_Score:          -33.047169
##########                     Grid_vdw_energy:          -32.146706
##########                      Grid_es_energy:           -0.900464
##########           Internal_energy_repulsive:           16.599718

@<TRIPOS>MOLECULE
ZINC001109082135
 54 57 1 0 0
SMALL
USER_CHARGES


@<TRIPOS>ATOM
      1 C1        -14.8742   -4.3052   57.9179 C.3     1  ZINC001109082135   -0.1400
      2 C2        -13.5742   -3.8843   57.2297 C.3     1  ZINC001109082135   -0.1400
      3 C3        -13.3390   -2.4132   57.4572 C.2     1  ZINC001109082135    0.5100
      4 O4        -14.2602   -1.6953   57.7842 O.2     1  ZINC001109082135   -0.5400
      5 N5        -12.1051   -1.8953   57.2973 N.am    1  ZINC001109082135   -0.7200
      6 C6        -11.8768   -0.4649   57.5166 C.3     1  ZINC001109082135    0.1000
      7 C7        -10.6974   -0.0126   56.6948 C.2     1  ZINC001109082135    0.5100
      8 O8         -9.5981    0.0629   57.2018 O.2     1  ZINC001109082135   -0.5300
      9 N9        -10.8641    0.3080   55.3964 N.am    1  ZINC001109082135   -0.7100
     10 C10        -9.7171    0.7461   54.5970 C.3     1  ZINC001109082135    0.1100
     11 H11        -9.0691    1.3979   55.1829 H       1  ZINC001109082135    0.0900
     12 C12        -8.9258   -0.4739   54.0650 C.3     1  ZINC001109082135   -0.1600
     13 C13        -9.0315   -0.3296   52.5167 C.3     1  ZINC001109082135    0.0600
     14 H14        -8.2696   -0.8563   51.9420 H       1  ZINC001109082135    0.1300
     15 C15       -10.5068   -0.6989   52.1762 C.3     1  ZINC001109082135   -0.1200
     16 C16       -11.3146    0.5101   52.7082 C.3     1  ZINC001109082135   -0.1100
     17 C17       -10.1952    1.4682   53.3014 C.3     1  ZINC001109082135    0.0400
     18 H18       -10.4786    2.5156   53.4047 H       1  ZINC001109082135    0.1200
     19 N19        -9.0486    1.1694   52.3676 N.3     1  ZINC001109082135   -0.4800
     20 C20        -7.8018    1.7748   52.8544 C.3     1  ZINC001109082135    0.0800
     21 C21        -7.2415    2.6904   51.7965 C.2     1  ZINC001109082135    0.2000
     22 C22        -5.9271    3.0455   51.8285 C.2     1  ZINC001109082135   -0.2900
     23 C23        -5.4351    3.9034   50.8232 C.2     1  ZINC001109082135    0.5200
     24 O24        -4.2643    4.2457   50.8145 O.2     1  ZINC001109082135   -0.5400
     25 N25        -6.2874    4.3373   49.8702 N.am    1  ZINC001109082135   -0.6300
     26 C26        -7.5775    3.9487   49.8949 C.2     1  ZINC001109082135    0.4300
     27 C27        -8.5158    4.4421   48.8238 C.3     1  ZINC001109082135   -0.1400
     28 C28        -9.3062    5.7203   49.1111 C.3     1  ZINC001109082135   -0.1400
     29 C29        -8.1499    5.7446   48.1094 C.3     1  ZINC001109082135   -0.1400
     30 N30        -8.0319    3.1500   50.8234 N.2     1  ZINC001109082135   -0.5300
     31 H31       -15.7059   -3.7359   57.5029 H       1  ZINC001109082135    0.0600
     32 H32       -15.0442   -5.3692   57.7534 H       1  ZINC001109082135    0.0600
     33 H33       -14.7986   -4.1106   58.9877 H       1  ZINC001109082135    0.0600
     34 H34       -12.7424   -4.4536   57.6448 H       1  ZINC001109082135    0.1000
     35 H35       -13.6498   -4.0790   56.1600 H       1  ZINC001109082135    0.1000
     36 H36       -11.3681   -2.4698   57.0369 H       1  ZINC001109082135    0.4100
     37 H37       -12.7635    0.0944   57.2182 H       1  ZINC001109082135    0.1000
     38 H38       -11.6734   -0.2872   58.5726 H       1  ZINC001109082135    0.1000
     39 H39       -11.7434    0.2488   54.9913 H       1  ZINC001109082135    0.4000
     40 H40        -7.8849   -0.4253   54.3848 H       1  ZINC001109082135    0.0800
     41 H41        -9.3870   -1.4045   54.3961 H       1  ZINC001109082135    0.0800
     42 H42       -10.6372   -0.8034   51.0990 H       1  ZINC001109082135    0.0700
     43 H43       -10.8018   -1.6138   52.6901 H       1  ZINC001109082135    0.0700
     44 H44       -11.8456    1.0047   51.8949 H       1  ZINC001109082135    0.0700
     45 H45       -12.0101    0.1945   53.4860 H       1  ZINC001109082135    0.0700
     46 H46        -8.0050    2.3470   53.7596 H       1  ZINC001109082135    0.1000
     47 H47        -7.0787    0.9897   53.0754 H       1  ZINC001109082135    0.0700
     48 H48        -5.2754    2.6783   52.6076 H       1  ZINC001109082135    0.1600
     49 H49        -5.9716    4.9283   49.1688 H       1  ZINC001109082135    0.4200
     50 H50        -9.0079    3.6670   48.2364 H       1  ZINC001109082135    0.1300
     51 H51       -10.3186    5.7862   48.7128 H       1  ZINC001109082135    0.1100
     52 H52        -9.1475    6.2042   50.0748 H       1  ZINC001109082135    0.1100
     53 H53        -7.2305    6.2447   48.4140 H       1  ZINC001109082135    0.1100
     54 H54        -8.4017    5.8266   47.0521 H       1  ZINC001109082135    0.1100
@<TRIPOS>BOND
     1     1     2    1
     2     1    31    1
     3     1    32    1
     4     1    33    1
     5     2     3    1
     6     2    34    1
     7     2    35    1
     8     3     4    2
     9     3     5   am
    10     5     6    1
    11     5    36    1
    12     6     7    1
    13     6    37    1
    14     6    38    1
    15     7     8    2
    16     7     9   am
    17     9    10    1
    18     9    39    1
    19    10    11    1
    20    10    17    1
    21    10    12    1
    22    12    13    1
    23    12    40    1
    24    12    41    1
    25    13    14    1
    26    13    19    1
    27    13    15    1
    28    15    16    1
    29    15    42    1
    30    15    43    1
    31    16    17    1
    32    16    44    1
    33    16    45    1
    34    17    18    1
    35    17    19    1
    36    19    20    1
    37    20    21    1
    38    20    46    1
    39    20    47    1
    40    21    30    1
    41    21    22    2
    42    22    23    1
    43    22    48    1
    44    23    24    2
    45    23    25   am
    46    25    26    1
    47    25    49    1
    48    26    27    1
    49    26    30    2
    50    27    29    1
    51    27    28    1
    52    27    50    1
    53    28    29    1
    54    28    51    1
    55    28    52    1
    56    29    53    1
    57    29    54    1
@<TRIPOS>SUBSTRUCTURE
     1 ZINC001109082135        1 TEMP              0 ****  ****    0 ROOT


##########                                Name:    ZINC000065993627
##########                DOCK_Rotatable_Bonds:                   7
##########                         Heavy_Atoms:                  28
##########                    Molecular_Weight:             382.462
##########                DOCK_Rotatable_Bonds:                   7
##########                       Formal_Charge:          -0.0200002
##########                     HBond_Acceptors:                   7
##########                        HBond_Donors:                   2
##########                         Heavy_Atoms:                  28
##########                          Grid_Score:          -33.043049
##########                     Grid_vdw_energy:          -30.729782
##########                      Grid_es_energy:           -2.313268
##########           Internal_energy_repulsive:           10.301135

@<TRIPOS>MOLECULE
ZINC000065993627
 54 56 1 0 0
SMALL
USER_CHARGES


@<TRIPOS>ATOM
      1 C1         -8.3028    3.7665   58.7503 C.3     1  ZINC000065993627   -0.1200
      2 C2         -8.4714    2.4447   59.4540 C.ar    1  ZINC000065993627   -0.0700
      3 C3         -8.8620    2.4125   60.7778 C.ar    1  ZINC000065993627   -0.1800
      4 C4         -9.0175    1.1941   61.4265 C.ar    1  ZINC000065993627    0.2000
      5 N5         -9.4137    1.1613   62.7680 N.pl3   1  ZINC000065993627   -0.6400
      6 C6         -8.5443    0.5458   63.7737 C.3     1  ZINC000065993627    0.1000
      7 C7        -10.6979    1.7426   63.1669 C.3     1  ZINC000065993627    0.0900
      8 C8         -8.7798    0.0088   60.7434 C.ar    1  ZINC000065993627   -0.1800
      9 C9         -8.3891    0.0415   59.4193 C.ar    1  ZINC000065993627   -0.0800
     10 C10        -8.2393    1.2591   58.7696 C.ar    1  ZINC000065993627    0.1100
     11 N11        -7.8430    1.2920   57.4251 N.am    1  ZINC000065993627   -0.6800
     12 C12        -8.7322    1.0067   56.4533 C.2     1  ZINC000065993627    0.7000
     13 O13        -9.8781    0.7208   56.7425 O.2     1  ZINC000065993627   -0.5700
     14 N14        -8.3512    1.0384   55.1609 N.am    1  ZINC000065993627   -0.7400
     15 C15        -9.3182    0.7300   54.1045 C.3     1  ZINC000065993627    0.2100
     16 H16       -10.3300    0.8486   54.4920 H       1  ZINC000065993627    0.1000
     17 C17        -9.1177   -0.7123   53.6348 C.3     1  ZINC000065993627   -0.1600
     18 C18        -9.1113    1.6693   52.9443 C.ar    1  ZINC000065993627   -0.1200
     19 C19       -10.1509    2.4729   52.5133 C.ar    1  ZINC000065993627   -0.0800
     20 C20        -9.9645    3.3347   51.4502 C.ar    1  ZINC000065993627   -0.1500
     21 C21        -8.7316    3.3938   50.8141 C.ar    1  ZINC000065993627    0.1800
     22 N22        -8.5393    4.2663   49.7369 N.am    1  ZINC000065993627   -0.5700
     23 C23        -9.3848    4.3417   48.5357 C.3     1  ZINC000065993627    0.0600
     24 C24        -8.7280    5.4525   47.6937 C.3     1  ZINC000065993627    0.0400
     25 O25        -7.5931    5.8821   48.5002 O.3     1  ZINC000065993627   -0.3200
     26 C26        -7.5581    5.1732   49.6343 C.2     1  ZINC000065993627    0.6400
     27 O27        -6.7089    5.3311   50.4889 O.2     1  ZINC000065993627   -0.5000
     28 C28        -7.6896    2.5856   51.2493 C.ar    1  ZINC000065993627   -0.1500
     29 C29        -7.8807    1.7299   52.3166 C.ar    1  ZINC000065993627   -0.0800
     30 H30        -9.2484    4.0580   58.2931 H       1  ZINC000065993627    0.0700
     31 H31        -7.9982    4.5255   59.4707 H       1  ZINC000065993627    0.0700
     32 H32        -7.5398    3.6720   57.9776 H       1  ZINC000065993627    0.0600
     33 H33        -9.0464    3.3346   61.3090 H       1  ZINC000065993627    0.1200
     34 H34        -7.8697    1.2990   64.1808 H       1  ZINC000065993627    0.0500
     35 H35        -9.1541    0.1320   64.5769 H       1  ZINC000065993627    0.0700
     36 H36        -7.9623   -0.2517   63.3118 H       1  ZINC000065993627    0.0700
     37 H37       -11.2400    2.0696   62.2795 H       1  ZINC000065993627    0.0800
     38 H38       -11.2866    0.9939   63.6969 H       1  ZINC000065993627    0.0500
     39 H39       -10.5227    2.5967   63.8210 H       1  ZINC000065993627    0.0500
     40 H40        -8.9003   -0.9386   61.2477 H       1  ZINC000065993627    0.1300
     41 H41        -8.2042   -0.8804   58.8879 H       1  ZINC000065993627    0.1500
     42 H42        -6.9289    1.5202   57.1944 H       1  ZINC000065993627    0.4000
     43 H43        -7.4368    1.2653   54.9302 H       1  ZINC000065993627    0.4000
     44 H44        -9.2674   -1.3917   54.4739 H       1  ZINC000065993627    0.0700
     45 H45        -9.8371   -0.9418   52.8487 H       1  ZINC000065993627    0.0700
     46 H46        -8.1059   -0.8310   53.2472 H       1  ZINC000065993627    0.0600
     47 H47       -11.1097    2.4261   53.0082 H       1  ZINC000065993627    0.1300
     48 H48       -10.7769    3.9617   51.1138 H       1  ZINC000065993627    0.1600
     49 H49        -9.3705    3.3941   47.9973 H       1  ZINC000065993627    0.1000
     50 H50       -10.4053    4.6162   48.8024 H       1  ZINC000065993627    0.1000
     51 H51        -8.3885    5.0564   46.7366 H       1  ZINC000065993627    0.1100
     52 H52        -9.4230    6.2783   47.5416 H       1  ZINC000065993627    0.1100
     53 H53        -6.7297    2.6290   50.7564 H       1  ZINC000065993627    0.1300
     54 H54        -7.0706    1.1013   52.6557 H       1  ZINC000065993627    0.1300
@<TRIPOS>BOND
     1     1     2    1
     2     1    30    1
     3     1    31    1
     4     1    32    1
     5     2    10   ar
     6     2     3   ar
     7     3     4   ar
     8     3    33    1
     9     4     5    1
    10     4     8   ar
    11     5     6    1
    12     5     7    1
    13     6    34    1
    14     6    35    1
    15     6    36    1
    16     7    37    1
    17     7    38    1
    18     7    39    1
    19     8     9   ar
    20     8    40    1
    21     9    10   ar
    22     9    41    1
    23    10    11    1
    24    11    12   am
    25    11    42    1
    26    12    13    2
    27    12    14   am
    28    14    15    1
    29    14    43    1
    30    15    16    1
    31    15    17    1
    32    15    18    1
    33    17    44    1
    34    17    45    1
    35    17    46    1
    36    18    29   ar
    37    18    19   ar
    38    19    20   ar
    39    19    47    1
    40    20    21   ar
    41    20    48    1
    42    21    22    1
    43    21    28   ar
    44    22    26   am
    45    22    23    1
    46    23    24    1
    47    23    49    1
    48    23    50    1
    49    24    25    1
    50    24    51    1
    51    24    52    1
    52    25    26    1
    53    26    27    2
    54    28    29   ar
    55    28    53    1
    56    29    54    1
@<TRIPOS>SUBSTRUCTURE
     1 ZINC000065993627        1 TEMP              0 ****  ****    0 ROOT


##########                                Name:    ZINC000467185792
##########                DOCK_Rotatable_Bonds:                   9
##########                         Heavy_Atoms:                  29
##########                    Molecular_Weight:             412.513
##########                DOCK_Rotatable_Bonds:                   9
##########                       Formal_Charge:                0.04
##########                     HBond_Acceptors:                   8
##########                        HBond_Donors:                   2
##########                         Heavy_Atoms:                  29
##########                          Grid_Score:          -33.035465
##########                     Grid_vdw_energy:          -31.477779
##########                      Grid_es_energy:           -1.557687
##########           Internal_energy_repulsive:           19.978519

@<TRIPOS>MOLECULE
ZINC000467185792
 53 55 1 0 0
SMALL
USER_CHARGES


@<TRIPOS>ATOM
      1 C1         -9.9233    0.6239   65.8545 C.3     1  ZINC000467185792   -0.1500
      2 C2         -8.6656   -0.0578   65.3119 C.3     1  ZINC000467185792   -0.1200
      3 C3         -8.6073    0.1145   63.7928 C.3     1  ZINC000467185792    0.0600
      4 O4         -9.7581   -0.4912   63.2002 O.3     1  ZINC000467185792   -0.3100
      5 C5         -9.8135   -0.5134   61.8424 C.ar    1  ZINC000467185792    0.1400
      6 C6         -8.9689    0.3017   61.1014 C.ar    1  ZINC000467185792   -0.2100
      7 C7         -9.0223    0.2811   59.7233 C.ar    1  ZINC000467185792   -0.0400
      8 C8         -9.9257   -0.5594   59.0748 C.ar    1  ZINC000467185792   -0.0600
      9 C9         -9.9855   -0.5844   57.5928 C.2     1  ZINC000467185792    0.1400
     10 C10       -10.3166   -1.6919   56.9054 C.2     1  ZINC000467185792   -0.3000
     11 S11       -10.2720   -1.3073   55.1863 S.3     1  ZINC000467185792    0.2000
     12 C12        -9.8009    0.3461   55.5679 C.2     1  ZINC000467185792    0.2800
     13 N13        -9.5576    1.3465   54.6366 N.am    1  ZINC000467185792   -0.6100
     14 C14        -8.7031    1.1256   53.6180 C.2     1  ZINC000467185792    0.5900
     15 O15        -8.1452    0.0499   53.5148 O.2     1  ZINC000467185792   -0.4900
     16 C16        -8.4449    2.1874   52.6295 C.2     1  ZINC000467185792   -0.2400
     17 C17        -7.2536    2.9102   52.6379 C.2     1  ZINC000467185792    0.0800
     18 C18        -6.1834    2.6303   53.6613 C.3     1  ZINC000467185792   -0.1200
     19 C19        -6.4549    3.4543   54.9216 C.3     1  ZINC000467185792   -0.1400
     20 C20        -7.0804    3.9041   51.6669 C.2     1  ZINC000467185792    0.0600
     21 C21        -5.8062    4.7085   51.6408 C.3     1  ZINC000467185792   -0.0600
     22 C22        -5.9042    5.7839   50.5569 C.3     1  ZINC000467185792   -0.1500
     23 N23        -8.0123    4.1397   50.7838 N.2     1  ZINC000467185792   -0.1800
     24 N24        -9.1196    3.4937   50.7477 N.am    1  ZINC000467185792   -0.4300
     25 C25        -9.4002    2.5109   51.6249 C.2     1  ZINC000467185792    0.5000
     26 O26       -10.4615    1.9142   51.5662 O.2     1  ZINC000467185792   -0.5300
     27 N27        -9.7216    0.4848   56.8551 N.2     1  ZINC000467185792   -0.5000
     28 C28       -10.7725   -1.3767   59.8218 C.ar    1  ZINC000467185792   -0.0600
     29 C29       -10.7105   -1.3553   61.1995 C.ar    1  ZINC000467185792   -0.1500
     30 H30       -10.8058    0.1705   65.4032 H       1  ZINC000467185792    0.0600
     31 H31        -9.9649    0.5011   66.9368 H       1  ZINC000467185792    0.0700
     32 H32        -9.8953    1.6858   65.6102 H       1  ZINC000467185792    0.0600
     33 H33        -7.7832    0.3956   65.7632 H       1  ZINC000467185792    0.0700
     34 H34        -8.6938   -1.1197   65.5564 H       1  ZINC000467185792    0.0700
     35 H35        -8.5890    1.1765   63.5479 H       1  ZINC000467185792    0.0600
     36 H36        -7.7065   -0.3629   63.4072 H       1  ZINC000467185792    0.0600
     37 H37        -8.2695    0.9529   61.6044 H       1  ZINC000467185792    0.1300
     38 H38        -8.3651    0.9158   59.1473 H       1  ZINC000467185792    0.1300
     39 H39       -10.5664   -2.6516   57.3331 H       1  ZINC000467185792    0.1800
     40 H40       -10.0026    2.2044   54.7189 H       1  ZINC000467185792    0.4400
     41 H41        -6.1894    1.5696   53.9125 H       1  ZINC000467185792    0.0900
     42 H42        -5.2099    2.9015   53.2527 H       1  ZINC000467185792    0.1300
     43 H43        -6.4488    4.5150   54.6705 H       1  ZINC000467185792    0.0600
     44 H44        -7.4283    3.1832   55.3303 H       1  ZINC000467185792    0.0600
     45 H45        -5.6808    3.2518   55.6618 H       1  ZINC000467185792    0.0700
     46 H46        -5.6561    5.1827   52.6107 H       1  ZINC000467185792    0.1000
     47 H47        -4.9651    4.0499   51.4242 H       1  ZINC000467185792    0.1000
     48 H48        -4.9827    6.3657   50.5382 H       1  ZINC000467185792    0.0600
     49 H49        -6.0544    5.3097   49.5871 H       1  ZINC000467185792    0.0600
     50 H50        -6.7453    6.4425   50.7736 H       1  ZINC000467185792    0.0600
     51 H51        -9.7726    3.7166   50.0659 H       1  ZINC000467185792    0.4500
     52 H52       -11.4737   -2.0287   59.3223 H       1  ZINC000467185792    0.1300
     53 H53       -11.3660   -1.9885   61.7789 H       1  ZINC000467185792    0.1400
@<TRIPOS>BOND
     1     1     2    1
     2     1    30    1
     3     1    31    1
     4     1    32    1
     5     2     3    1
     6     2    33    1
     7     2    34    1
     8     3     4    1
     9     3    35    1
    10     3    36    1
    11     4     5    1
    12     5    29   ar
    13     5     6   ar
    14     6     7   ar
    15     6    37    1
    16     7     8   ar
    17     7    38    1
    18     8     9    1
    19     8    28   ar
    20     9    27    1
    21     9    10    2
    22    10    11    1
    23    10    39    1
    24    11    12    1
    25    12    13    1
    26    12    27    2
    27    13    14   am
    28    13    40    1
    29    14    15    2
    30    14    16    1
    31    16    25    1
    32    16    17    2
    33    17    18    1
    34    17    20    1
    35    18    19    1
    36    18    41    1
    37    18    42    1
    38    19    43    1
    39    19    44    1
    40    19    45    1
    41    20    21    1
    42    20    23    2
    43    21    22    1
    44    21    46    1
    45    21    47    1
    46    22    48    1
    47    22    49    1
    48    22    50    1
    49    23    24    1
    50    24    25   am
    51    24    51    1
    52    25    26    2
    53    28    29   ar
    54    28    52    1
    55    29    53    1
@<TRIPOS>SUBSTRUCTURE
     1 ZINC000467185792        1 TEMP              0 ****  ****    0 ROOT


##########                                Name:    ZINC000590699876
##########                DOCK_Rotatable_Bonds:                   9
##########                         Heavy_Atoms:                  30
##########                    Molecular_Weight:              421.54
##########                DOCK_Rotatable_Bonds:                   9
##########                       Formal_Charge:          -0.0300004
##########                     HBond_Acceptors:                   9
##########                        HBond_Donors:                   1
##########                         Heavy_Atoms:                  30
##########                          Grid_Score:          -33.032017
##########                     Grid_vdw_energy:          -32.416748
##########                      Grid_es_energy:           -0.615268
##########           Internal_energy_repulsive:          102.623306

@<TRIPOS>MOLECULE
ZINC000590699876
 65 67 1 0 0
SMALL
USER_CHARGES


@<TRIPOS>ATOM
      1 C1         -8.6949   -0.0123   63.4012 C.3     1  ZINC000590699876   -0.1700
      2 C2         -9.7811   -0.1411   62.3647 C.2     1  ZINC000590699876    0.5100
      3 O3        -10.5005    0.8040   62.1195 O.2     1  ZINC000590699876   -0.5500
      4 N4         -9.9532   -1.3066   61.7102 N.am    1  ZINC000590699876   -0.7200
      5 C5        -11.0104   -1.4324   60.7037 C.3     1  ZINC000590699876    0.1100
      6 C6        -10.4513   -1.1025   59.3437 C.2     1  ZINC000590699876    0.5300
      7 O7         -9.4885   -0.3715   59.2450 O.2     1  ZINC000590699876   -0.5200
      8 N8        -11.0212   -1.6195   58.2373 N.am    1  ZINC000590699876   -0.6000
      9 C9        -12.1903   -2.5174   58.2124 C.3     1  ZINC000590699876    0.1000
     10 C10       -12.8109   -2.3215   56.8067 C.3     1  ZINC000590699876   -0.1300
     11 C11       -11.5437   -2.1515   55.9277 C.3     1  ZINC000590699876   -0.1300
     12 C12       -10.5839   -1.3765   56.8549 C.3     1  ZINC000590699876    0.1200
     13 H13        -9.5656   -1.7427   56.7237 H       1  ZINC000590699876    0.1000
     14 C14       -10.6435    0.0958   56.5390 C.2     1  ZINC000590699876    0.5100
     15 O15       -11.3041    0.8387   57.2337 O.2     1  ZINC000590699876   -0.5200
     16 N16        -9.9627    0.5870   55.4847 N.am    1  ZINC000590699876   -0.6100
     17 C17       -10.0009    2.0218   55.1635 C.3     1  ZINC000590699876    0.1000
     18 C18        -8.5616    2.5243   55.0084 C.3     1  ZINC000590699876    0.0400
     19 N19        -7.8568    1.6870   54.0286 N.3     1  ZINC000590699876   -0.5200
     20 C20        -6.5298    2.2381   53.7229 C.3     1  ZINC000590699876    0.0400
     21 C21        -6.6233    3.1310   52.5126 C.2     1  ZINC000590699876    0.5200
     22 O22        -7.6718    3.2293   51.9111 O.2     1  ZINC000590699876   -0.5100
     23 N23        -5.5417    3.8204   52.0987 N.am    1  ZINC000590699876   -0.6100
     24 C24        -4.2646    3.7117   52.8169 C.3     1  ZINC000590699876    0.1100
     25 C25        -3.7846    5.1191   53.1850 C.3     1  ZINC000590699876   -0.1400
     26 C26        -3.7235    5.9797   51.9210 C.3     1  ZINC000590699876   -0.1200
     27 C27        -5.1219    6.0909   51.3094 C.3     1  ZINC000590699876   -0.1300
     28 C28        -5.6156    4.6901   50.9167 C.3     1  ZINC000590699876    0.1400
     29 H29        -4.9858    4.2901   50.1221 H       1  ZINC000590699876    0.0700
     30 C30        -7.0637    4.7744   50.4302 C.3     1  ZINC000590699876   -0.1400
     31 C31        -7.7556    0.2964   54.4909 C.3     1  ZINC000590699876    0.0400
     32 C32        -9.1569   -0.2966   54.6284 C.3     1  ZINC000590699876    0.1200
     33 H33        -8.7091    0.9941   63.8194 H       1  ZINC000590699876    0.1000
     34 H34        -8.8634   -0.7386   64.1964 H       1  ZINC000590699876    0.0900
     35 H35        -7.7263   -0.1995   62.9376 H       1  ZINC000590699876    0.0900
     36 H36        -9.3771   -2.0621   61.9053 H       1  ZINC000590699876    0.4100
     37 H37       -11.3909   -2.4539   60.7021 H       1  ZINC000590699876    0.1000
     38 H38       -11.8211   -0.7432   60.9403 H       1  ZINC000590699876    0.1000
     39 H39       -11.8765   -3.5525   58.3477 H       1  ZINC000590699876    0.0800
     40 H40       -12.9040   -2.2323   58.9853 H       1  ZINC000590699876    0.0800
     41 H41       -13.3805   -3.2005   56.5051 H       1  ZINC000590699876    0.0900
     42 H42       -13.4315   -1.4259   56.7749 H       1  ZINC000590699876    0.0800
     43 H43       -11.1270   -3.1224   55.6598 H       1  ZINC000590699876    0.1000
     44 H44       -11.7690   -1.5678   55.0351 H       1  ZINC000590699876    0.0900
     45 H45       -10.5443    2.1739   54.2310 H       1  ZINC000590699876    0.0800
     46 H46       -10.4934    2.5646   55.9703 H       1  ZINC000590699876    0.0900
     47 H47        -8.5725    3.5580   54.6627 H       1  ZINC000590699876    0.0900
     48 H48        -8.0509    2.4674   55.9698 H       1  ZINC000590699876    0.0400
     49 H49        -6.1717    2.8166   54.5745 H       1  ZINC000590699876    0.1000
     50 H50        -5.8357    1.4225   53.5201 H       1  ZINC000590699876    0.0600
     51 H51        -4.4047    3.1245   53.7245 H       1  ZINC000590699876    0.0800
     52 H52        -3.5256    3.2291   52.1774 H       1  ZINC000590699876    0.0700
     53 H53        -4.4793    5.5661   53.8962 H       1  ZINC000590699876    0.0700
     54 H54        -2.7927    5.0597   53.6330 H       1  ZINC000590699876    0.0800
     55 H55        -3.3587    6.9746   52.1763 H       1  ZINC000590699876    0.0700
     56 H56        -3.0475    5.5192   51.2005 H       1  ZINC000590699876    0.0600
     57 H57        -5.8041    6.5287   52.0382 H       1  ZINC000590699876    0.0700
     58 H58        -5.0818    6.7231   50.4223 H       1  ZINC000590699876    0.0700
     59 H59        -7.1283    5.4805   49.6022 H       1  ZINC000590699876    0.0400
     60 H60        -7.3923    3.7906   50.0951 H       1  ZINC000590699876    0.0700
     61 H61        -7.7023    5.1122   51.2464 H       1  ZINC000590699876    0.0700
     62 H62        -7.1820   -0.2859   53.7697 H       1  ZINC000590699876    0.1100
     63 H63        -7.2561    0.2705   55.4594 H       1  ZINC000590699876    0.0300
     64 H64        -9.0928   -1.2870   55.0790 H       1  ZINC000590699876    0.0900
     65 H65        -9.6223   -0.3679   53.6453 H       1  ZINC000590699876    0.0800
@<TRIPOS>BOND
     1     1     2    1
     2     1    33    1
     3     1    34    1
     4     1    35    1
     5     2     3    2
     6     2     4   am
     7     4     5    1
     8     4    36    1
     9     5     6    1
    10     5    37    1
    11     5    38    1
    12     6     7    2
    13     6     8   am
    14     8    12    1
    15     8     9    1
    16     9    10    1
    17     9    39    1
    18     9    40    1
    19    10    11    1
    20    10    41    1
    21    10    42    1
    22    11    12    1
    23    11    43    1
    24    11    44    1
    25    12    13    1
    26    12    14    1
    27    14    15    2
    28    14    16   am
    29    16    32    1
    30    16    17    1
    31    17    18    1
    32    17    45    1
    33    17    46    1
    34    18    19    1
    35    18    47    1
    36    18    48    1
    37    19    20    1
    38    19    31    1
    39    20    21    1
    40    20    49    1
    41    20    50    1
    42    21    22    2
    43    21    23   am
    44    23    28    1
    45    23    24    1
    46    24    25    1
    47    24    51    1
    48    24    52    1
    49    25    26    1
    50    25    53    1
    51    25    54    1
    52    26    27    1
    53    26    55    1
    54    26    56    1
    55    27    28    1
    56    27    57    1
    57    27    58    1
    58    28    29    1
    59    28    30    1
    60    30    59    1
    61    30    60    1
    62    30    61    1
    63    31    32    1
    64    31    62    1
    65    31    63    1
    66    32    64    1
    67    32    65    1
@<TRIPOS>SUBSTRUCTURE
     1 ZINC000590699876        1 TEMP              0 ****  ****    0 ROOT


##########                                Name:    ZINC001109848453
##########                DOCK_Rotatable_Bonds:                   8
##########                         Heavy_Atoms:                  24
##########                    Molecular_Weight:             328.337
##########                DOCK_Rotatable_Bonds:                   8
##########                       Formal_Charge:          0.00999966
##########                     HBond_Acceptors:                  11
##########                        HBond_Donors:                   2
##########                         Heavy_Atoms:                  24
##########                          Grid_Score:          -33.019402
##########                     Grid_vdw_energy:          -29.469986
##########                      Grid_es_energy:           -3.549415
##########           Internal_energy_repulsive:            6.076024

@<TRIPOS>MOLECULE
ZINC001109848453
 40 43 1 0 0
SMALL
USER_CHARGES


@<TRIPOS>ATOM
      1 O1        -10.4896    0.0344   62.6171 O.2     1  ZINC001109848453   -0.5000
      2 C2         -9.2799   -0.0426   62.6567 C.2     1  ZINC001109848453    0.5000
      3 C3         -8.5702   -0.0761   63.9858 C.3     1  ZINC001109848453    0.1100
      4 N4         -9.3450    0.6806   64.9723 N.pl3   1  ZINC001109848453   -0.3700
      5 C5         -9.2381    1.9922   65.2466 C.2     1  ZINC001109848453    0.2600
      6 N6        -10.1021    2.2825   66.1853 N.2     1  ZINC001109848453   -0.5400
      7 C7        -10.7757    1.1870   66.5339 C.2     1  ZINC001109848453    0.2000
      8 N8        -10.3512    0.1811   65.8152 N.2     1  ZINC001109848453   -0.2900
      9 N9         -8.5706   -0.1038   61.5124 N.am    1  ZINC001109848453   -0.7300
     10 C10        -9.2605   -0.0712   60.2204 C.3     1  ZINC001109848453    0.1700
     11 H11       -10.1522    0.5507   60.3001 H       1  ZINC001109848453    0.1000
     12 C12        -9.6638   -1.4922   59.8216 C.3     1  ZINC001109848453    0.1200
     13 N13       -10.4693   -1.4461   58.5987 N.pl3   1  ZINC001109848453   -0.6800
     14 C14       -11.6710   -2.1319   58.5347 C.2     1  ZINC001109848453    0.4900
     15 N15       -11.8614   -3.0564   57.6134 N.2     1  ZINC001109848453   -0.5300
     16 C16       -13.0137   -3.7270   57.5384 C.2     1  ZINC001109848453    0.1400
     17 C17       -14.0253   -3.4866   58.3979 C.2     1  ZINC001109848453   -0.0500
     18 N18       -13.8824   -2.5388   59.3729 N.pl3   1  ZINC001109848453   -0.1800
     19 N19       -14.6423   -2.0962   60.3109 N.2     1  ZINC001109848453   -0.1000
     20 N20       -14.0178   -1.1810   60.9677 N.2     1  ZINC001109848453   -0.0400
     21 N21       -12.8390   -1.0085   60.4720 N.2     1  ZINC001109848453   -0.2600
     22 C22       -12.7033   -1.8514   59.4607 C.2     1  ZINC001109848453    0.1000
     23 C23        -8.3261    0.5108   59.1578 C.3     1  ZINC001109848453   -0.1800
     24 C24        -8.9371    1.4558   58.1210 C.3     1  ZINC001109848453   -0.1700
     25 C25        -8.0308    2.0107   59.2218 C.3     1  ZINC001109848453   -0.1700
     26 H26        -8.4695   -1.1094   64.3180 H       1  ZINC001109848453    0.1300
     27 H27        -7.5812    0.3699   63.8810 H       1  ZINC001109848453    0.1200
     28 H28        -8.5574    2.6855   64.7750 H       1  ZINC001109848453    0.2200
     29 H29       -11.5497    1.1389   67.2856 H       1  ZINC001109848453    0.2200
     30 H30        -7.6033   -0.1694   61.5442 H       1  ZINC001109848453    0.4000
     31 H31        -8.7684   -2.0879   59.6446 H       1  ZINC001109848453    0.1000
     32 H32       -10.2474   -1.9431   60.6243 H       1  ZINC001109848453    0.0900
     33 H33       -10.1611   -0.9353   57.8339 H       1  ZINC001109848453    0.4200
     34 H34       -13.1389   -4.4782   56.7725 H       1  ZINC001109848453    0.2000
     35 H35       -14.9478   -4.0422   58.3158 H       1  ZINC001109848453    0.1900
     36 H36        -7.5219   -0.1468   58.8278 H       1  ZINC001109848453    0.1100
     37 H37        -8.5349    1.4198   57.1086 H       1  ZINC001109848453    0.1000
     38 H38       -10.0046    1.6627   58.1960 H       1  ZINC001109848453    0.1000
     39 H39        -8.5022    2.5828   60.0210 H       1  ZINC001109848453    0.1200
     40 H40        -7.0326    2.3399   58.9336 H       1  ZINC001109848453    0.0900
@<TRIPOS>BOND
     1     1     2    2
     2     2     3    1
     3     2     9   am
     4     3     4    1
     5     3    26    1
     6     3    27    1
     7     4     8    1
     8     4     5    1
     9     5     6    2
    10     5    28    1
    11     6     7    1
    12     7     8    2
    13     7    29    1
    14     9    10    1
    15     9    30    1
    16    10    11    1
    17    10    12    1
    18    10    23    1
    19    12    13    1
    20    12    31    1
    21    12    32    1
    22    13    14    1
    23    13    33    1
    24    14    22    1
    25    14    15    2
    26    15    16    1
    27    16    17    2
    28    16    34    1
    29    17    18    1
    30    17    35    1
    31    18    22    1
    32    18    19    1
    33    19    20    2
    34    20    21    1
    35    21    22    2
    36    23    25    1
    37    23    24    1
    38    23    36    1
    39    24    25    1
    40    24    37    1
    41    24    38    1
    42    25    39    1
    43    25    40    1
@<TRIPOS>SUBSTRUCTURE
     1 ZINC001109848453        1 TEMP              0 ****  ****    0 ROOT


##########                                Name:    ZINC000281257088
##########                DOCK_Rotatable_Bonds:                   8
##########                         Heavy_Atoms:                  27
##########                    Molecular_Weight:             395.541
##########                DOCK_Rotatable_Bonds:                   8
##########                       Formal_Charge:          -0.0200005
##########                     HBond_Acceptors:                   7
##########                        HBond_Donors:                   1
##########                         Heavy_Atoms:                  27
##########                          Grid_Score:          -33.015083
##########                     Grid_vdw_energy:          -32.673481
##########                      Grid_es_energy:           -0.341601
##########           Internal_energy_repulsive:           28.242289

@<TRIPOS>MOLECULE
ZINC000281257088
 57 58 1 0 0
SMALL
USER_CHARGES


@<TRIPOS>ATOM
      1 C1        -11.1187   -2.8380   58.1327 C.3     1  ZINC000281257088   -0.0700
      2 C2        -10.3952   -1.6760   58.7631 C.2     1  ZINC000281257088    0.1000
      3 N3         -9.9148   -1.6401   59.9796 N.2     1  ZINC000281257088   -0.3000
      4 N4         -9.3187   -0.3880   60.1779 N.pl3   1  ZINC000281257088   -0.3700
      5 C5         -8.6598    0.0682   61.4043 C.3     1  ZINC000281257088    0.1500
      6 C6         -9.5699   -0.2037   62.6037 C.3     1  ZINC000281257088   -0.6400
      7 S7         -8.6511    0.0931   64.1394 S.o2    1  ZINC000281257088    2.4300
      8 C8         -8.8892    1.8752   64.3801 C.3     1  ZINC000281257088   -0.6500
      9 O9         -9.3020   -0.5976   65.1971 O.2     1  ZINC000281257088   -0.9300
     10 O10        -7.2724   -0.1507   63.8965 O.2     1  ZINC000281257088   -0.9300
     11 C11        -9.4586    0.3235   59.0399 C.2     1  ZINC000281257088    0.0900
     12 C12        -8.9654    1.7279   58.8038 C.3     1  ZINC000281257088   -0.1000
     13 C13       -10.1160   -0.4519   58.1468 C.2     1  ZINC000281257088   -0.2300
     14 C14       -10.4891   -0.0621   56.7397 C.3     1  ZINC000281257088    0.1400
     15 N15        -9.2796    0.3259   56.0019 N.3     1  ZINC000281257088   -0.6700
     16 C16        -9.5372    1.4894   55.1431 C.3     1  ZINC000281257088    0.1400
     17 H17        -9.9116    2.3135   55.7504 H       1  ZINC000281257088    0.0500
     18 C18       -10.5634    1.1270   54.1006 C.ar    1  ZINC000281257088   -0.0800
     19 C19       -10.6026   -0.1558   53.5868 C.ar    1  ZINC000281257088   -0.0600
     20 C20       -11.5433   -0.4893   52.6308 C.ar    1  ZINC000281257088   -0.1600
     21 C21       -12.4469    0.4618   52.1881 C.ar    1  ZINC000281257088    0.1000
     22 F22       -13.3672    0.1368   51.2540 F       1  ZINC000281257088   -0.1400
     23 C23       -12.4069    1.7461   52.7038 C.ar    1  ZINC000281257088   -0.1600
     24 C24       -11.4685    2.0759   53.6632 C.ar    1  ZINC000281257088   -0.0900
     25 C25        -8.2382    1.9126   54.4544 C.3     1  ZINC000281257088   -0.0600
     26 C26        -8.5565    2.4805   53.0698 C.3     1  ZINC000281257088   -0.1400
     27 C27        -7.5396    2.9824   55.2962 C.3     1  ZINC000281257088   -0.1400
     28 C28        -7.3192    0.6980   54.3084 C.3     1  ZINC000281257088   -0.1500
     29 H29       -10.3976   -3.4924   57.6430 H       1  ZINC000281257088    0.0800
     30 H30       -11.6510   -3.3958   58.9032 H       1  ZINC000281257088    0.0700
     31 H31       -11.8308   -2.4661   57.3960 H       1  ZINC000281257088    0.0800
     32 H32        -7.7196   -0.4681   61.5327 H       1  ZINC000281257088    0.1100
     33 H33        -8.4614    1.1377   61.3338 H       1  ZINC000281257088    0.1100
     34 H34       -10.4332    0.4604   62.5627 H       1  ZINC000281257088    0.1400
     35 H35        -9.9070   -1.2399   62.5765 H       1  ZINC000281257088    0.1400
     36 H36        -9.9539    2.0906   64.4702 H       1  ZINC000281257088    0.1300
     37 H37        -8.3764    2.1908   65.2887 H       1  ZINC000281257088    0.1300
     38 H38        -8.4804    2.4150   63.5260 H       1  ZINC000281257088    0.1300
     39 H39        -7.9515    1.6947   58.4049 H       1  ZINC000281257088    0.0800
     40 H40        -9.6204    2.2278   58.0903 H       1  ZINC000281257088    0.0900
     41 H41        -8.9675    2.2768   59.7455 H       1  ZINC000281257088    0.0700
     42 H42       -10.9627   -0.9082   56.2418 H       1  ZINC000281257088    0.0800
     43 H43       -11.1830    0.7781   56.7673 H       1  ZINC000281257088    0.0300
     44 H44        -8.5129    0.5049   56.6330 H       1  ZINC000281257088    0.3400
     45 H45        -9.8977   -0.8975   53.9323 H       1  ZINC000281257088    0.1400
     46 H46       -11.5733   -1.4914   52.2290 H       1  ZINC000281257088    0.1300
     47 H47       -13.1111    2.4888   52.3589 H       1  ZINC000281257088    0.1300
     48 H48       -11.4374    3.0777   54.0659 H       1  ZINC000281257088    0.1300
     49 H49        -9.2111    3.3458   53.1738 H       1  ZINC000281257088    0.0600
     50 H50        -7.6311    2.7820   52.5792 H       1  ZINC000281257088    0.0500
     51 H51        -9.0542    1.7184   52.4702 H       1  ZINC000281257088    0.0600
     52 H52        -7.3128    2.5777   56.2825 H       1  ZINC000281257088    0.0500
     53 H53        -6.6141    3.2838   54.8055 H       1  ZINC000281257088    0.0600
     54 H54        -8.1943    3.8476   55.4001 H       1  ZINC000281257088    0.0600
     55 H55        -7.7839   -0.0315   53.6452 H       1  ZINC000281257088    0.0500
     56 H56        -6.3639    1.0135   53.8891 H       1  ZINC000281257088    0.0600
     57 H57        -7.1553    0.2468   55.2870 H       1  ZINC000281257088    0.0600
@<TRIPOS>BOND
     1     1     2    1
     2     1    29    1
     3     1    30    1
     4     1    31    1
     5     2    13    1
     6     2     3    2
     7     3     4    1
     8     4     5    1
     9     4    11    1
    10     5     6    1
    11     5    32    1
    12     5    33    1
    13     6     7    1
    14     6    34    1
    15     6    35    1
    16     7     8    1
    17     7     9    2
    18     7    10    2
    19     8    36    1
    20     8    37    1
    21     8    38    1
    22    11    12    1
    23    11    13    2
    24    12    39    1
    25    12    40    1
    26    12    41    1
    27    13    14    1
    28    14    15    1
    29    14    42    1
    30    14    43    1
    31    15    16    1
    32    15    44    1
    33    16    17    1
    34    16    18    1
    35    16    25    1
    36    18    24   ar
    37    18    19   ar
    38    19    20   ar
    39    19    45    1
    40    20    21   ar
    41    20    46    1
    42    21    22    1
    43    21    23   ar
    44    23    24   ar
    45    23    47    1
    46    24    48    1
    47    25    26    1
    48    25    27    1
    49    25    28    1
    50    26    49    1
    51    26    50    1
    52    26    51    1
    53    27    52    1
    54    27    53    1
    55    27    54    1
    56    28    55    1
    57    28    56    1
    58    28    57    1
@<TRIPOS>SUBSTRUCTURE
     1 ZINC000281257088        1 TEMP              0 ****  ****    0 ROOT


##########                                Name:    ZINC000279452407
##########                DOCK_Rotatable_Bonds:                   6
##########                         Heavy_Atoms:                  24
##########                    Molecular_Weight:              375.47
##########                DOCK_Rotatable_Bonds:                   6
##########                       Formal_Charge:          0.00999929
##########                     HBond_Acceptors:                  10
##########                        HBond_Donors:                   3
##########                         Heavy_Atoms:                  24
##########                          Grid_Score:          -33.014534
##########                     Grid_vdw_energy:          -30.543419
##########                      Grid_es_energy:           -2.471115
##########           Internal_energy_repulsive:           28.334480

@<TRIPOS>MOLECULE
ZINC000279452407
 45 47 1 0 0
SMALL
USER_CHARGES


@<TRIPOS>ATOM
      1 C1        -12.6920   -2.0055   59.7024 C.3     1  ZINC000279452407   -0.1600
      2 C2        -13.7458   -1.9588   58.5941 C.3     1  ZINC000279452407    0.0600
      3 H3        -14.0648   -0.9297   58.4287 H       1  ZINC000279452407    0.0700
      4 O4        -14.8771   -2.7698   58.9593 O.3     1  ZINC000279452407   -0.3700
      5 C5        -15.3889   -3.3531   57.7412 C.3     1  ZINC000279452407    0.0500
      6 C6        -14.1079   -3.7185   56.9468 C.3     1  ZINC000279452407   -0.1400
      7 C7        -13.1667   -2.5417   57.2967 C.3     1  ZINC000279452407    0.0700
      8 C8        -11.7506   -3.0603   57.5336 C.3     1  ZINC000279452407    0.1100
      9 N9        -10.8506   -1.9047   57.6865 N.am    1  ZINC000279452407   -0.6300
     10 C10        -9.9907   -1.8257   58.7214 C.2     1  ZINC000279452407    0.7200
     11 O11        -9.9498   -2.7170   59.5473 O.2     1  ZINC000279452407   -0.5800
     12 N12        -9.1761   -0.7585   58.8407 N.am    1  ZINC000279452407   -0.7500
     13 C13        -8.2416   -0.6727   59.9656 C.3     1  ZINC000279452407    0.2000
     14 C14        -8.9583   -0.1262   61.1734 C.2     1  ZINC000279452407   -0.1700
     15 C15       -10.0179    0.6832   61.1379 C.2     1  ZINC000279452407   -0.1400
     16 C16       -10.5086    1.0565   62.3772 C.2     1  ZINC000279452407    0.0100
     17 C17        -9.8475    0.5502   63.4192 C.2     1  ZINC000279452407   -0.7900
     18 S18       -10.2390    0.8459   65.1116 S.o2    1  ZINC000279452407    2.7300
     19 N19        -9.2275    2.0429   65.6468 N.am    1  ZINC000279452407   -1.2500
     20 O20       -11.5511    1.3912   65.1305 O.2     1  ZINC000279452407   -0.9600
     21 O21        -9.8765   -0.3319   65.8190 O.2     1  ZINC000279452407   -0.9500
     22 S22        -8.5301   -0.4642   62.8455 S.3     1  ZINC000279452407    0.2500
     23 C23       -10.9191   -0.8392   56.6738 C.3     1  ZINC000279452407    0.0700
     24 C24       -12.3835   -0.4156   56.5126 C.3     1  ZINC000279452407    0.0400
     25 O25       -13.1831   -1.5736   56.2549 O.3     1  ZINC000279452407   -0.3600
     26 H26       -11.8801   -1.3195   59.4608 H       1  ZINC000279452407    0.0700
     27 H27       -13.1463   -1.7119   60.6485 H       1  ZINC000279452407    0.0600
     28 H28       -12.2985   -3.0185   59.7871 H       1  ZINC000279452407    0.0800
     29 H29       -15.9727   -4.2473   57.9599 H       1  ZINC000279452407    0.1000
     30 H30       -15.9880   -2.6278   57.1907 H       1  ZINC000279452407    0.0700
     31 H31       -13.6934   -4.6662   57.2906 H       1  ZINC000279452407    0.1000
     32 H32       -14.3092   -3.7488   55.8760 H       1  ZINC000279452407    0.1000
     33 H33       -11.7285   -3.6643   58.4405 H       1  ZINC000279452407    0.1200
     34 H34       -11.4333   -3.6614   56.6815 H       1  ZINC000279452407    0.0800
     35 H35        -9.2088   -0.0474   58.1818 H       1  ZINC000279452407    0.4000
     36 H36        -7.8532   -1.6656   60.1920 H       1  ZINC000279452407    0.1000
     37 H37        -7.4163   -0.0110   59.7026 H       1  ZINC000279452407    0.0900
     38 H38       -10.4594    1.0220   60.2123 H       1  ZINC000279452407    0.1600
     39 H39       -11.3619    1.7086   62.4919 H       1  ZINC000279452407    0.1600
     40 H40        -8.2666    1.9127   65.6226 H       1  ZINC000279452407    0.4200
     41 H41        -9.5960    2.8742   65.9845 H       1  ZINC000279452407    0.4200
     42 H42       -10.3246    0.0144   56.9993 H       1  ZINC000279452407    0.0900
     43 H43       -10.5390   -1.2126   55.7229 H       1  ZINC000279452407    0.0900
     44 H44       -12.7258    0.0667   57.4282 H       1  ZINC000279452407    0.0600
     45 H45       -12.4714    0.2806   55.6786 H       1  ZINC000279452407    0.1100
@<TRIPOS>BOND
     1     1     2    1
     2     1    26    1
     3     1    27    1
     4     1    28    1
     5     2     3    1
     6     2     7    1
     7     2     4    1
     8     4     5    1
     9     5     6    1
    10     5    29    1
    11     5    30    1
    12     6     7    1
    13     6    31    1
    14     6    32    1
    15     7    25    1
    16     7     8    1
    17     8     9    1
    18     8    33    1
    19     8    34    1
    20     9    10   am
    21     9    23    1
    22    10    11    2
    23    10    12   am
    24    12    13    1
    25    12    35    1
    26    13    14    1
    27    13    36    1
    28    13    37    1
    29    14    22    1
    30    14    15    2
    31    15    16    1
    32    15    38    1
    33    16    17    2
    34    16    39    1
    35    17    18    1
    36    17    22    1
    37    18    19   am
    38    18    20    2
    39    18    21    2
    40    19    40    1
    41    19    41    1
    42    23    24    1
    43    23    42    1
    44    23    43    1
    45    24    25    1
    46    24    44    1
    47    24    45    1
@<TRIPOS>SUBSTRUCTURE
     1 ZINC000279452407        1 TEMP              0 ****  ****    0 ROOT


##########                                Name:    ZINC000004598904
##########                DOCK_Rotatable_Bonds:                  13
##########                         Heavy_Atoms:                  30
##########                    Molecular_Weight:             412.442
##########                DOCK_Rotatable_Bonds:                  13
##########                       Formal_Charge:          -0.0300005
##########                     HBond_Acceptors:                   8
##########                        HBond_Donors:                   2
##########                         Heavy_Atoms:                  30
##########                          Grid_Score:          -32.997772
##########                     Grid_vdw_energy:          -31.293482
##########                      Grid_es_energy:           -1.704290
##########           Internal_energy_repulsive:           10.562080

@<TRIPOS>MOLECULE
ZINC000004598904
 54 55 1 0 0
SMALL
USER_CHARGES


@<TRIPOS>ATOM
      1 C1          2.0260   -0.9518   65.7894 C.3     1  ZINC000004598904   -0.1500
      2 C2          0.8521   -0.4868   64.9253 C.3     1  ZINC000004598904    0.0600
      3 O3          1.3536    0.2844   63.8021 O.3     1  ZINC000004598904   -0.3500
      4 C4          0.4390    0.8097   62.9634 C.2     1  ZINC000004598904    0.5100
      5 O5         -0.7444    0.6075   63.1513 O.2     1  ZINC000004598904   -0.5100
      6 C6          0.8741    1.6299   61.8178 C.ar    1  ZINC000004598904   -0.1500
      7 C7          2.2303    1.7087   61.4874 C.ar    1  ZINC000004598904   -0.0400
      8 C8          2.6327    2.4754   60.4174 C.ar    1  ZINC000004598904   -0.1400
      9 C9          1.6917    3.1713   59.6648 C.ar    1  ZINC000004598904    0.1800
     10 N10         2.1030    3.9464   58.5815 N.am    1  ZINC000004598904   -0.6700
     11 C11         2.7343    3.3683   57.5404 C.2     1  ZINC000004598904    0.5200
     12 O12         2.9445    2.1739   57.5460 O.2     1  ZINC000004598904   -0.5100
     13 C13         3.1789    4.2062   56.3694 C.3     1  ZINC000004598904   -0.1300
     14 C14         4.4436    3.5991   55.7588 C.3     1  ZINC000004598904   -0.1300
     15 C15         4.1001    2.9311   54.4524 C.2     1  ZINC000004598904    0.5200
     16 O16         4.7220    3.2069   53.4484 O.2     1  ZINC000004598904   -0.5100
     17 N17         3.1017    2.0272   54.3997 N.am    1  ZINC000004598904   -0.6700
     18 C18         2.7839    1.4093   53.1910 C.ar    1  ZINC000004598904    0.1800
     19 C19         3.4175    0.2242   52.8297 C.ar    1  ZINC000004598904   -0.1400
     20 C20         3.1062   -0.3887   51.6372 C.ar    1  ZINC000004598904   -0.0300
     21 C21         2.1519    0.1807   50.7888 C.ar    1  ZINC000004598904   -0.1500
     22 C22         1.8155   -0.4731   49.5106 C.2     1  ZINC000004598904    0.5100
     23 O23         2.1941    0.0109   48.4625 O.2     1  ZINC000004598904   -0.5100
     24 O24         1.0880   -1.6074   49.5050 O.3     1  ZINC000004598904   -0.3600
     25 C25        -0.3531   -1.4668   49.6118 C.3     1  ZINC000004598904    0.0600
     26 C26        -1.0302   -2.3282   48.5438 C.3     1  ZINC000004598904   -0.1500
     27 C27         1.5171    1.3712   51.1552 C.ar    1  ZINC000004598904   -0.0400
     28 C28         1.8298    1.9760   52.3515 C.ar    1  ZINC000004598904   -0.1600
     29 C29         0.3411    3.0952   59.9907 C.ar    1  ZINC000004598904   -0.1600
     30 C30        -0.0692    2.3259   61.0559 C.ar    1  ZINC000004598904   -0.0300
     31 H31         2.5711   -0.0834   66.1595 H       1  ZINC000004598904    0.0700
     32 H32         1.6494   -1.5308   66.6327 H       1  ZINC000004598904    0.0800
     33 H33         2.6936   -1.5723   65.1918 H       1  ZINC000004598904    0.0700
     34 H34         0.3069   -1.3552   64.5553 H       1  ZINC000004598904    0.0700
     35 H35         0.1843    0.1338   65.5230 H       1  ZINC000004598904    0.0700
     36 H36         2.9612    1.1692   62.0713 H       1  ZINC000004598904    0.1400
     37 H37         3.6802    2.5371   60.1619 H       1  ZINC000004598904    0.1400
     38 H38         1.9350    4.9017   58.5771 H       1  ZINC000004598904    0.4200
     39 H39         2.3887    4.2303   55.6190 H       1  ZINC000004598904    0.1100
     40 H40         3.3898    5.2207   56.7077 H       1  ZINC000004598904    0.1100
     41 H41         5.1762    4.3867   55.5825 H       1  ZINC000004598904    0.1100
     42 H42         4.8607    2.8621   56.4450 H       1  ZINC000004598904    0.1100
     43 H43         2.6043    1.8067   55.2027 H       1  ZINC000004598904    0.4200
     44 H44         4.1545   -0.2151   53.4856 H       1  ZINC000004598904    0.1400
     45 H45         3.5988   -1.3080   51.3570 H       1  ZINC000004598904    0.1400
     46 H46        -0.6777   -1.7920   50.6002 H       1  ZINC000004598904    0.0700
     47 H47        -0.6282   -0.4225   49.4644 H       1  ZINC000004598904    0.0700
     48 H48        -2.1121   -2.2226   48.6240 H       1  ZINC000004598904    0.0800
     49 H49        -0.7057   -2.0029   47.5553 H       1  ZINC000004598904    0.0700
     50 H50        -0.7551   -3.3725   48.6912 H       1  ZINC000004598904    0.0700
     51 H51         0.7797    1.8140   50.5022 H       1  ZINC000004598904    0.1400
     52 H52         1.3396    2.8955   52.6356 H       1  ZINC000004598904    0.1400
     53 H53        -0.3865    3.6366   59.4045 H       1  ZINC000004598904    0.1400
     54 H54        -1.1176    2.2672   61.3083 H       1  ZINC000004598904    0.1400
@<TRIPOS>BOND
     1     1     2    1
     2     1    31    1
     3     1    32    1
     4     1    33    1
     5     2     3    1
     6     2    34    1
     7     2    35    1
     8     3     4    1
     9     4     5    2
    10     4     6    1
    11     6    30   ar
    12     6     7   ar
    13     7     8   ar
    14     7    36    1
    15     8     9   ar
    16     8    37    1
    17     9    10    1
    18     9    29   ar
    19    10    11   am
    20    10    38    1
    21    11    12    2
    22    11    13    1
    23    13    14    1
    24    13    39    1
    25    13    40    1
    26    14    15    1
    27    14    41    1
    28    14    42    1
    29    15    16    2
    30    15    17   am
    31    17    18    1
    32    17    43    1
    33    18    28   ar
    34    18    19   ar
    35    19    20   ar
    36    19    44    1
    37    20    21   ar
    38    20    45    1
    39    21    22    1
    40    21    27   ar
    41    22    23    2
    42    22    24    1
    43    24    25    1
    44    25    26    1
    45    25    46    1
    46    25    47    1
    47    26    48    1
    48    26    49    1
    49    26    50    1
    50    27    28   ar
    51    27    51    1
    52    28    52    1
    53    29    30   ar
    54    29    53    1
    55    30    54    1
@<TRIPOS>SUBSTRUCTURE
     1 ZINC000004598904        1 TEMP              0 ****  ****    0 ROOT


##########                                Name:    ZINC000671418508
##########                DOCK_Rotatable_Bonds:                   9
##########                         Heavy_Atoms:                  28
##########                    Molecular_Weight:             405.884
##########                DOCK_Rotatable_Bonds:                   9
##########                       Formal_Charge:         -1.3411e-07
##########                     HBond_Acceptors:                   9
##########                        HBond_Donors:                   2
##########                         Heavy_Atoms:                  28
##########                          Grid_Score:          -32.975643
##########                     Grid_vdw_energy:          -31.257980
##########                      Grid_es_energy:           -1.717664
##########           Internal_energy_repulsive:           19.645386

@<TRIPOS>MOLECULE
ZINC000671418508
 52 54 1 0 0
SMALL
USER_CHARGES


@<TRIPOS>ATOM
      1 C1        -12.7821    2.9142   47.5229 C.3     1  ZINC000671418508    0.1000
      2 N2        -13.0058    1.7458   48.3779 N.pl3   1  ZINC000671418508   -0.3700
      3 C3        -12.7453    1.6677   49.6997 C.2     1  ZINC000671418508    0.0800
      4 C4        -13.0900    0.4270   50.1154 C.2     1  ZINC000671418508   -0.2700
      5 C5        -12.9702   -0.1022   51.5214 C.3     1  ZINC000671418508    0.2000
      6 N6        -11.8021    0.4977   52.1710 N.am    1  ZINC000671418508   -0.6900
      7 C7        -10.6172   -0.1445   52.1531 C.2     1  ZINC000671418508    0.5100
      8 O8        -10.5183   -1.2201   51.6001 O.2     1  ZINC000671418508   -0.5100
      9 C9         -9.4252    0.4683   52.8142 C.2     1  ZINC000671418508    0.5100
     10 O10        -8.7157    1.2347   52.1963 O.2     1  ZINC000671418508   -0.5200
     11 N11        -9.1382    0.1697   54.0968 N.am    1  ZINC000671418508   -0.5800
     12 C12        -7.9735    0.7662   54.7683 C.3     1  ZINC000671418508    0.0800
     13 C13        -8.4360    1.3733   56.0971 C.3     1  ZINC000671418508    0.0400
     14 N14        -9.1470    0.3518   56.8774 N.3     1  ZINC000671418508   -0.5200
     15 C15        -9.4565    0.8414   58.2273 C.3     1  ZINC000671418508    0.1300
     16 H16        -9.8182    1.8679   58.1676 H       1  ZINC000671418508    0.0600
     17 C17        -8.1929    0.7952   59.0888 C.3     1  ZINC000671418508    0.0900
     18 O18        -8.3416    1.6809   60.2003 O.3     1  ZINC000671418508   -0.5500
     19 C19       -10.5186   -0.0302   58.8465 C.ar    1  ZINC000671418508   -0.0800
     20 C20       -10.2859   -1.3810   59.0259 C.ar    1  ZINC000671418508   -0.0600
     21 C21       -11.2597   -2.1809   59.5937 C.ar    1  ZINC000671418508   -0.1200
     22 C22       -12.4675   -1.6294   59.9826 C.ar    1  ZINC000671418508   -0.0300
     23 Cl23      -13.6908   -2.6332   60.6962 Cl      1  ZINC000671418508   -0.0700
     24 C24       -12.6999   -0.2774   59.8028 C.ar    1  ZINC000671418508   -0.1200
     25 C25       -11.7232    0.5225   59.2400 C.ar    1  ZINC000671418508   -0.1100
     26 C26       -10.3646   -0.0942   56.1871 C.3     1  ZINC000671418508    0.0400
     27 C27        -9.9847   -0.7567   54.8639 C.3     1  ZINC000671418508    0.1100
     28 C28       -13.5779   -0.2772   49.0099 C.2     1  ZINC000671418508    0.0700
     29 N29       -13.5335    0.5143   47.9690 N.2     1  ZINC000671418508   -0.2900
     30 H30       -13.6747    3.5398   47.5217 H       1  ZINC000671418508    0.0800
     31 H31       -11.9371    3.4873   47.9047 H       1  ZINC000671418508    0.0900
     32 H32       -12.5680    2.5848   46.5062 H       1  ZINC000671418508    0.0900
     33 H33       -12.3347    2.4544   50.3153 H       1  ZINC000671418508    0.1800
     34 H34       -13.8690    0.1522   52.0831 H       1  ZINC000671418508    0.0800
     35 H35       -12.8538   -1.1856   51.4932 H       1  ZINC000671418508    0.0800
     36 H36       -11.8814    1.3569   52.6141 H       1  ZINC000671418508    0.4100
     37 H37        -7.2260   -0.0040   54.9581 H       1  ZINC000671418508    0.0800
     38 H38        -7.5473    1.5466   54.1378 H       1  ZINC000671418508    0.1400
     39 H39        -7.5694    1.7222   56.6587 H       1  ZINC000671418508    0.0900
     40 H40        -9.1043    2.2118   55.9009 H       1  ZINC000671418508    0.0400
     41 H41        -8.0377   -0.2207   59.4520 H       1  ZINC000671418508    0.0500
     42 H42        -7.3345    1.1027   58.4915 H       1  ZINC000671418508    0.0500
     43 H43        -8.2055    1.2595   61.0600 H       1  ZINC000671418508    0.3800
     44 H44        -9.3433   -1.8115   58.7221 H       1  ZINC000671418508    0.1400
     45 H45       -11.0780   -3.2362   59.7335 H       1  ZINC000671418508    0.1300
     46 H46       -13.6426    0.1536   60.1057 H       1  ZINC000671418508    0.1300
     47 H47       -11.9042    1.5780   59.1000 H       1  ZINC000671418508    0.1300
     48 H48       -10.8968   -0.8096   56.8140 H       1  ZINC000671418508    0.0900
     49 H49       -11.0061    0.7646   55.9897 H       1  ZINC000671418508    0.0400
     50 H50       -10.8869   -0.9857   54.2967 H       1  ZINC000671418508    0.1000
     51 H51        -9.4293   -1.6739   55.0598 H       1  ZINC000671418508    0.0800
     52 H52       -13.9344   -1.2967   49.0155 H       1  ZINC000671418508    0.1900
@<TRIPOS>BOND
     1     1     2    1
     2     1    30    1
     3     1    31    1
     4     1    32    1
     5     2    29    1
     6     2     3    1
     7     3     4    2
     8     3    33    1
     9     4     5    1
    10     4    28    1
    11     5     6    1
    12     5    34    1
    13     5    35    1
    14     6     7   am
    15     6    36    1
    16     7     8    2
    17     7     9    1
    18     9    10    2
    19     9    11   am
    20    11    27    1
    21    11    12    1
    22    12    13    1
    23    12    37    1
    24    12    38    1
    25    13    14    1
    26    13    39    1
    27    13    40    1
    28    14    15    1
    29    14    26    1
    30    15    16    1
    31    15    17    1
    32    15    19    1
    33    17    18    1
    34    17    41    1
    35    17    42    1
    36    18    43    1
    37    19    25   ar
    38    19    20   ar
    39    20    21   ar
    40    20    44    1
    41    21    22   ar
    42    21    45    1
    43    22    23    1
    44    22    24   ar
    45    24    25   ar
    46    24    46    1
    47    25    47    1
    48    26    27    1
    49    26    48    1
    50    26    49    1
    51    27    50    1
    52    27    51    1
    53    28    29    2
    54    28    52    1
@<TRIPOS>SUBSTRUCTURE
     1 ZINC000671418508        1 TEMP              0 ****  ****    0 ROOT


##########                                Name:    ZINC000487792031
##########                DOCK_Rotatable_Bonds:                  12
##########                         Heavy_Atoms:                  29
##########                    Molecular_Weight:             414.569
##########                DOCK_Rotatable_Bonds:                  12
##########                       Formal_Charge:          -0.0100001
##########                     HBond_Acceptors:                   6
##########                        HBond_Donors:                   1
##########                         Heavy_Atoms:                  29
##########                          Grid_Score:          -32.974739
##########                     Grid_vdw_energy:          -31.025919
##########                      Grid_es_energy:           -1.948821
##########           Internal_energy_repulsive:           20.388651

@<TRIPOS>MOLECULE
ZINC000487792031
 59 60 1 0 0
SMALL
USER_CHARGES


@<TRIPOS>ATOM
      1 C1         -0.3678    2.9971   61.5757 C.2     1  ZINC000487792031   -0.1900
      2 C2         -0.2016    3.6001   60.4246 C.2     1  ZINC000487792031   -0.1500
      3 C3         -1.3380    3.6645   59.4368 C.3     1  ZINC000487792031   -0.0900
      4 C4         -0.7755    3.7126   58.0149 C.3     1  ZINC000487792031   -0.0900
      5 C5         -1.8822    3.3661   57.0167 C.3     1  ZINC000487792031   -0.0700
      6 H6         -2.1398    2.3112   57.1117 H       1  ZINC000487792031    0.1100
      7 C7         -3.0988    4.2080   57.3033 C.2     1  ZINC000487792031    0.5200
      8 O8         -3.0062    5.4169   57.3335 O.2     1  ZINC000487792031   -0.5300
      9 N9         -4.2897    3.6176   57.5262 N.am    1  ZINC000487792031   -0.7200
     10 C10        -5.4720    4.4360   57.8065 C.3     1  ZINC000487792031    0.1500
     11 C11        -6.6202    3.5421   58.1982 C.ar    1  ZINC000487792031   -0.0500
     12 C12        -7.0917    2.5933   57.3103 C.ar    1  ZINC000487792031   -0.1200
     13 C13        -8.1450    1.7734   57.6697 C.ar    1  ZINC000487792031   -0.0200
     14 C14        -8.7266    1.9019   58.9172 C.ar    1  ZINC000487792031   -0.6700
     15 S15       -10.0695    0.8572   59.3751 S.o2    1  ZINC000487792031    2.6900
     16 O16       -10.8156    1.5682   60.3534 O.2     1  ZINC000487792031   -0.9500
     17 O17       -10.6357    0.3771   58.1634 O.2     1  ZINC000487792031   -0.9500
     18 N18        -9.4255   -0.4602   60.1445 N.am    1  ZINC000487792031   -1.0000
     19 C19        -8.6371   -0.2819   61.3663 C.3     1  ZINC000487792031    0.1200
     20 C20        -9.4439   -0.7730   62.5700 C.3     1  ZINC000487792031   -0.1800
     21 C21        -9.6442   -1.8039   59.6033 C.3     1  ZINC000487792031    0.1100
     22 C22       -11.0861   -2.2358   59.8778 C.3     1  ZINC000487792031   -0.1800
     23 C23        -8.2543    2.8499   59.8056 C.ar    1  ZINC000487792031   -0.0200
     24 C24        -7.1984    3.6672   59.4477 C.ar    1  ZINC000487792031   -0.1200
     25 C25        -1.3995    3.6413   55.6159 C.ar    1  ZINC000487792031   -0.0800
     26 C26        -0.0440    3.6908   55.3491 C.ar    1  ZINC000487792031   -0.1100
     27 C27         0.3986    3.9432   54.0641 C.ar    1  ZINC000487792031   -0.1100
     28 C28        -0.5141    4.1457   53.0459 C.ar    1  ZINC000487792031   -0.1200
     29 C29        -1.8695    4.0952   53.3125 C.ar    1  ZINC000487792031   -0.1200
     30 C30        -2.3123    3.8385   54.5967 C.ar    1  ZINC000487792031   -0.1100
     31 H31         0.4466    2.9509   62.2836 H       1  ZINC000487792031    0.1000
     32 H32        -1.3204    2.5501   61.8186 H       1  ZINC000487792031    0.1000
     33 H33         0.7496    4.0509   60.1835 H       1  ZINC000487792031    0.1100
     34 H34        -1.9674    2.7817   59.5490 H       1  ZINC000487792031    0.0700
     35 H35        -1.9313    4.5597   59.6234 H       1  ZINC000487792031    0.0700
     36 H36        -0.3991    4.7141   57.8067 H       1  ZINC000487792031    0.0800
     37 H37         0.0370    2.9922   57.9210 H       1  ZINC000487792031    0.0700
     38 H38        -4.3639    2.6508   57.5009 H       1  ZINC000487792031    0.4000
     39 H39        -5.2523    5.1241   58.6228 H       1  ZINC000487792031    0.0800
     40 H40        -5.7407    5.0033   56.9154 H       1  ZINC000487792031    0.0800
     41 H41        -6.6373    2.4928   56.3358 H       1  ZINC000487792031    0.1400
     42 H42        -8.5138    1.0325   56.9758 H       1  ZINC000487792031    0.1400
     43 H43        -7.7134   -0.8555   61.2897 H       1  ZINC000487792031    0.0800
     44 H44        -8.3994    0.7741   61.4946 H       1  ZINC000487792031    0.0800
     45 H45       -10.3676   -0.1994   62.6467 H       1  ZINC000487792031    0.0600
     46 H46        -9.6816   -1.8290   62.4418 H       1  ZINC000487792031    0.0600
     47 H47        -8.8574   -0.6404   63.4791 H       1  ZINC000487792031    0.0700
     48 H48        -9.4658   -1.7959   58.5279 H       1  ZINC000487792031    0.0900
     49 H49        -8.9582   -2.5038   60.0801 H       1  ZINC000487792031    0.0900
     50 H50       -11.2644   -2.2437   60.9531 H       1  ZINC000487792031    0.0600
     51 H51       -11.7721   -1.5359   59.4009 H       1  ZINC000487792031    0.0600
     52 H52       -11.2487   -3.2355   59.4751 H       1  ZINC000487792031    0.0700
     53 H53        -8.7083    2.9501   60.7804 H       1  ZINC000487792031    0.1400
     54 H54        -6.8294    4.4078   60.1418 H       1  ZINC000487792031    0.1400
     55 H55         0.6690    3.5327   56.1447 H       1  ZINC000487792031    0.1200
     56 H56         1.4576    3.9827   53.8558 H       1  ZINC000487792031    0.1200
     57 H57        -0.1682    4.3435   52.0421 H       1  ZINC000487792031    0.1200
     58 H58        -2.5827    4.2537   52.5170 H       1  ZINC000487792031    0.1200
     59 H59        -3.3713    3.7990   54.8050 H       1  ZINC000487792031    0.1200
@<TRIPOS>BOND
     1     1     2    2
     2     1    31    1
     3     1    32    1
     4     2     3    1
     5     2    33    1
     6     3     4    1
     7     3    34    1
     8     3    35    1
     9     4     5    1
    10     4    36    1
    11     4    37    1
    12     5     6    1
    13     5     7    1
    14     5    25    1
    15     7     8    2
    16     7     9   am
    17     9    10    1
    18     9    38    1
    19    10    11    1
    20    10    39    1
    21    10    40    1
    22    11    24   ar
    23    11    12   ar
    24    12    13   ar
    25    12    41    1
    26    13    14   ar
    27    13    42    1
    28    14    15    1
    29    14    23   ar
    30    15    16    2
    31    15    17    2
    32    15    18   am
    33    18    19    1
    34    18    21    1
    35    19    20    1
    36    19    43    1
    37    19    44    1
    38    20    45    1
    39    20    46    1
    40    20    47    1
    41    21    22    1
    42    21    48    1
    43    21    49    1
    44    22    50    1
    45    22    51    1
    46    22    52    1
    47    23    24   ar
    48    23    53    1
    49    24    54    1
    50    25    30   ar
    51    25    26   ar
    52    26    27   ar
    53    26    55    1
    54    27    28   ar
    55    27    56    1
    56    28    29   ar
    57    28    57    1
    58    29    30   ar
    59    29    58    1
    60    30    59    1
@<TRIPOS>SUBSTRUCTURE
     1 ZINC000487792031        1 TEMP              0 ****  ****    0 ROOT


##########                                Name:    ZINC000432058199
##########                DOCK_Rotatable_Bonds:                   5
##########                         Heavy_Atoms:                  30
##########                    Molecular_Weight:             406.441
##########                DOCK_Rotatable_Bonds:                   5
##########                       Formal_Charge:        -4.02331e-07
##########                     HBond_Acceptors:                   8
##########                        HBond_Donors:                   1
##########                         Heavy_Atoms:                  30
##########                          Grid_Score:          -32.939816
##########                     Grid_vdw_energy:          -32.718521
##########                      Grid_es_energy:           -0.221295
##########           Internal_energy_repulsive:           18.246580

@<TRIPOS>MOLECULE
ZINC000432058199
 52 55 1 0 0
SMALL
USER_CHARGES


@<TRIPOS>ATOM
      1 C1        -13.3654   -0.3465   53.6449 C.3     1  ZINC000432058199    0.0300
      2 O2        -12.4658   -0.8759   52.6689 O.3     1  ZINC000432058199   -0.3100
      3 C3        -11.1367   -0.7214   52.9067 C.ar    1  ZINC000432058199    0.1300
      4 C4        -10.2078   -1.2130   52.0001 C.ar    1  ZINC000432058199   -0.1900
      5 C5         -8.8549   -1.0579   52.2382 C.ar    1  ZINC000432058199   -0.0800
      6 C6         -8.4204   -0.4134   53.3788 C.ar    1  ZINC000432058199   -0.1100
      7 C7         -9.3466    0.0835   54.2939 C.ar    1  ZINC000432058199    0.0100
      8 C8         -8.8819    0.7774   55.5210 C.2     1  ZINC000432058199    0.2100
      9 N9         -7.6506    1.1149   55.8028 N.2     1  ZINC000432058199   -0.3700
     10 O10        -7.6062    1.6672   56.8817 O.3     1  ZINC000432058199    0.1200
     11 C11        -8.8321    1.7397   57.4096 C.2     1  ZINC000432058199    0.1600
     12 C12        -9.2007    2.3525   58.7360 C.3     1  ZINC000432058199    0.2500
     13 H13       -10.0489    3.0240   58.6028 H       1  ZINC000432058199    0.1500
     14 C14        -8.0082    3.1395   59.2832 C.3     1  ZINC000432058199   -0.1700
     15 N15        -9.5609    1.2922   59.6806 N.am    1  ZINC000432058199   -0.5800
     16 C16        -8.7985    0.2230   59.9369 C.2     1  ZINC000432058199    0.7000
     17 O17        -7.7226    0.0186   59.4099 O.2     1  ZINC000432058199   -0.5100
     18 N18        -9.3558   -0.6002   60.8431 N.am    1  ZINC000432058199   -0.7200
     19 C19       -10.6426    0.0054   61.2274 C.3     1  ZINC000432058199    0.1400
     20 H20       -11.4697   -0.6573   60.9727 H       1  ZINC000432058199    0.1400
     21 C21       -10.6581    0.3283   62.6994 C.ar    1  ZINC000432058199   -0.1000
     22 C22       -11.7498    0.9692   63.2549 C.ar    1  ZINC000432058199   -0.1000
     23 C23       -11.7639    1.2655   64.6050 C.ar    1  ZINC000432058199   -0.0800
     24 C24       -12.9537    1.9645   65.2106 C.3     1  ZINC000432058199   -0.1200
     25 C25       -10.6870    0.9201   65.3998 C.ar    1  ZINC000432058199   -0.1100
     26 C26        -9.5955    0.2789   64.8443 C.ar    1  ZINC000432058199   -0.0800
     27 C27        -8.4211   -0.0972   65.7107 C.3     1  ZINC000432058199   -0.1200
     28 C28        -9.5831   -0.0212   63.4951 C.ar    1  ZINC000432058199   -0.1000
     29 C29       -10.6986    1.2762   60.4030 C.2     1  ZINC000432058199    0.5300
     30 O30       -11.5850    2.1033   60.3915 O.2     1  ZINC000432058199   -0.4500
     31 N31        -9.6537    1.1839   56.5542 N.2     1  ZINC000432058199   -0.4500
     32 C32       -10.7092   -0.0682   54.0513 C.ar    1  ZINC000432058199   -0.1200
     33 H33       -14.3925   -0.5370   53.3336 H       1  ZINC000432058199    0.1000
     34 H34       -13.1822   -0.8265   54.6062 H       1  ZINC000432058199    0.0600
     35 H35       -13.2077    0.7279   53.7393 H       1  ZINC000432058199    0.0600
     36 H36       -10.5429   -1.7183   51.1064 H       1  ZINC000432058199    0.1400
     37 H37        -8.1359   -1.4426   51.5299 H       1  ZINC000432058199    0.1400
     38 H38        -7.3627   -0.2944   53.5623 H       1  ZINC000432058199    0.1400
     39 H39        -7.1600    2.4680   59.4164 H       1  ZINC000432058199    0.0900
     40 H40        -7.7401    3.9284   58.5804 H       1  ZINC000432058199    0.0900
     41 H41        -8.2749    3.5828   60.2426 H       1  ZINC000432058199    0.0900
     42 H42        -8.9834   -1.4310   61.1779 H       1  ZINC000432058199    0.4500
     43 H43       -12.5913    1.2386   62.6340 H       1  ZINC000432058199    0.1200
     44 H44       -13.6761    1.2229   65.5518 H       1  ZINC000432058199    0.0700
     45 H45       -12.6278    2.5701   66.0562 H       1  ZINC000432058199    0.0700
     46 H46       -13.4181    2.6062   64.4618 H       1  ZINC000432058199    0.0700
     47 H47       -10.6981    1.1517   66.4546 H       1  ZINC000432058199    0.1300
     48 H48        -8.5735   -1.0980   66.1147 H       1  ZINC000432058199    0.0700
     49 H49        -7.5094   -0.0811   65.1137 H       1  ZINC000432058199    0.0700
     50 H50        -8.3313    0.6158   66.5304 H       1  ZINC000432058199    0.0700
     51 H51        -8.7305   -0.5221   63.0611 H       1  ZINC000432058199    0.1300
     52 H52       -11.4309    0.3152   54.7574 H       1  ZINC000432058199    0.1400
@<TRIPOS>BOND
     1     1     2    1
     2     1    33    1
     3     1    34    1
     4     1    35    1
     5     2     3    1
     6     3    32   ar
     7     3     4   ar
     8     4     5   ar
     9     4    36    1
    10     5     6   ar
    11     5    37    1
    12     6     7   ar
    13     6    38    1
    14     7     8    1
    15     7    32   ar
    16     8    31    1
    17     8     9    2
    18     9    10    1
    19    10    11    1
    20    11    12    1
    21    11    31    2
    22    12    13    1
    23    12    14    1
    24    12    15    1
    25    14    39    1
    26    14    40    1
    27    14    41    1
    28    15    29   am
    29    15    16   am
    30    16    17    2
    31    16    18   am
    32    18    19    1
    33    18    42    1
    34    19    20    1
    35    19    21    1
    36    19    29    1
    37    21    28   ar
    38    21    22   ar
    39    22    23   ar
    40    22    43    1
    41    23    24    1
    42    23    25   ar
    43    24    44    1
    44    24    45    1
    45    24    46    1
    46    25    26   ar
    47    25    47    1
    48    26    27    1
    49    26    28   ar
    50    27    48    1
    51    27    49    1
    52    27    50    1
    53    28    51    1
    54    29    30    2
    55    32    52    1
@<TRIPOS>SUBSTRUCTURE
     1 ZINC000432058199        1 TEMP              0 ****  ****    0 ROOT


##########                                Name:    ZINC000821214121
##########                DOCK_Rotatable_Bonds:                  10
##########                         Heavy_Atoms:                  23
##########                    Molecular_Weight:             338.434
##########                DOCK_Rotatable_Bonds:                  10
##########                       Formal_Charge:          0.00999954
##########                     HBond_Acceptors:                   9
##########                        HBond_Donors:                   3
##########                         Heavy_Atoms:                  23
##########                          Grid_Score:          -32.930111
##########                     Grid_vdw_energy:          -30.623169
##########                      Grid_es_energy:           -2.306941
##########           Internal_energy_repulsive:           11.118760

@<TRIPOS>MOLECULE
ZINC000821214121
 45 46 1 0 0
SMALL
USER_CHARGES


@<TRIPOS>ATOM
      1 C1         -8.9907    3.4100   61.3128 C.3     1  ZINC000821214121   -0.1500
      2 C2         -9.6599    2.2489   62.0510 C.3     1  ZINC000821214121    0.0500
      3 N3         -8.7366    1.1077   62.1079 N.3     1  ZINC000821214121   -0.5200
      4 C4         -8.2775    0.8700   63.4829 C.3     1  ZINC000821214121    0.0600
      5 C5         -9.4214    0.2753   64.3068 C.3     1  ZINC000821214121   -0.1200
      6 C6         -9.0925    0.3941   65.7963 C.3     1  ZINC000821214121    0.0800
      7 O7         -7.9796   -0.4468   66.1069 O.3     1  ZINC000821214121   -0.5700
      8 C8         -9.3558   -0.0990   61.5437 C.3     1  ZINC000821214121    0.0400
      9 C9         -9.0227   -0.1960   60.0772 C.2     1  ZINC000821214121    0.5000
     10 O10        -8.0503   -0.8251   59.7164 O.2     1  ZINC000821214121   -0.4800
     11 N11        -9.8051    0.4162   59.1665 N.am    1  ZINC000821214121   -0.6300
     12 C12        -9.4979    0.3251   57.8101 C.2     1  ZINC000821214121    0.0800
     13 C13       -10.0238   -0.5852   56.9424 C.2     1  ZINC000821214121   -0.1000
     14 C14       -11.0110   -1.6130   57.3512 C.2     1  ZINC000821214121    0.2900
     15 N15       -12.3204   -1.5471   57.1917 N.2     1  ZINC000821214121   -0.3300
     16 N16       -12.8338   -2.7397   57.7274 N.pl3   1  ZINC000821214121   -0.2900
     17 N17       -11.8312   -3.4243   58.1609 N.2     1  ZINC000821214121    0.0200
     18 N18       -10.7396   -2.7806   57.9444 N.2     1  ZINC000821214121   -0.2900
     19 C19        -9.5507   -0.4642   55.6359 C.2     1  ZINC000821214121   -0.0500
     20 C20       -10.0063   -1.3727   54.5232 C.3     1  ZINC000821214121   -0.1000
     21 C21        -8.6693    0.5114   55.4445 C.2     1  ZINC000821214121   -0.2400
     22 C22        -8.0184    0.8381   54.1251 C.3     1  ZINC000821214121   -0.0800
     23 S23        -8.3769    1.3714   56.9492 S.3     1  ZINC000821214121    0.2600
     24 H24        -8.0353    3.6385   61.7853 H       1  ZINC000821214121    0.0700
     25 H25        -8.8240    3.1312   60.2723 H       1  ZINC000821214121    0.0500
     26 H26        -9.6360    4.2875   61.3550 H       1  ZINC000821214121    0.0600
     27 H27        -9.9148    2.5609   63.0638 H       1  ZINC000821214121    0.0900
     28 H28       -10.5669    1.9565   61.5219 H       1  ZINC000821214121    0.0400
     29 H29        -7.4386    0.1741   63.4707 H       1  ZINC000821214121    0.0400
     30 H30        -7.9610    1.8130   63.9284 H       1  ZINC000821214121    0.0800
     31 H31       -10.3427    0.8174   64.0938 H       1  ZINC000821214121    0.0800
     32 H32        -9.5494   -0.7752   64.0457 H       1  ZINC000821214121    0.0700
     33 H33        -8.8431    1.4286   66.0319 H       1  ZINC000821214121    0.0400
     34 H34        -9.9565    0.0855   66.3849 H       1  ZINC000821214121    0.0500
     35 H35        -7.1671   -0.2136   65.6372 H       1  ZINC000821214121    0.3800
     36 H36        -8.9748   -0.9791   62.0618 H       1  ZINC000821214121    0.0700
     37 H37       -10.4374   -0.0444   61.6678 H       1  ZINC000821214121    0.1200
     38 H38       -10.5821    0.9203   59.4549 H       1  ZINC000821214121    0.4200
     39 H39       -13.7677   -2.9992   57.7646 H       1  ZINC000821214121    0.4700
     40 H40       -10.8820   -0.9418   54.0378 H       1  ZINC000821214121    0.0700
     41 H41        -9.2043   -1.4837   53.7934 H       1  ZINC000821214121    0.0700
     42 H42       -10.2621   -2.3496   54.9334 H       1  ZINC000821214121    0.0900
     43 H43        -8.6276    1.5663   53.5899 H       1  ZINC000821214121    0.0700
     44 H44        -7.0266    1.2541   54.3023 H       1  ZINC000821214121    0.0700
     45 H45        -7.9303   -0.0702   53.5289 H       1  ZINC000821214121    0.0800
@<TRIPOS>BOND
     1     1     2    1
     2     1    24    1
     3     1    25    1
     4     1    26    1
     5     2     3    1
     6     2    27    1
     7     2    28    1
     8     3     4    1
     9     3     8    1
    10     4     5    1
    11     4    29    1
    12     4    30    1
    13     5     6    1
    14     5    31    1
    15     5    32    1
    16     6     7    1
    17     6    33    1
    18     6    34    1
    19     7    35    1
    20     8     9    1
    21     8    36    1
    22     8    37    1
    23     9    10    2
    24     9    11   am
    25    11    12    1
    26    11    38    1
    27    12    23    1
    28    12    13    2
    29    13    14    1
    30    13    19    1
    31    14    18    1
    32    14    15    2
    33    15    16    1
    34    16    17    1
    35    16    39    1
    36    17    18    2
    37    19    20    1
    38    19    21    2
    39    20    40    1
    40    20    41    1
    41    20    42    1
    42    21    22    1
    43    21    23    1
    44    22    43    1
    45    22    44    1
    46    22    45    1
@<TRIPOS>SUBSTRUCTURE
     1 ZINC000821214121        1 TEMP              0 ****  ****    0 ROOT


##########                                Name:    ZINC000642096826
##########                DOCK_Rotatable_Bonds:                  12
##########                         Heavy_Atoms:                  25
##########                    Molecular_Weight:             345.485
##########                DOCK_Rotatable_Bonds:                  12
##########                       Formal_Charge:          0.00999919
##########                     HBond_Acceptors:                   5
##########                        HBond_Donors:                   1
##########                         Heavy_Atoms:                  25
##########                          Grid_Score:          -32.858444
##########                     Grid_vdw_energy:          -32.903015
##########                      Grid_es_energy:            0.044569
##########           Internal_energy_repulsive:           21.079172

@<TRIPOS>MOLECULE
ZINC000642096826
 56 57 1 0 0
SMALL
USER_CHARGES


@<TRIPOS>ATOM
      1 C1        -11.3025   -0.2159   52.1334 C.3     1  ZINC000642096826   -0.1500
      2 C2         -9.8015   -0.5105   52.1699 C.3     1  ZINC000642096826   -0.1400
      3 C3         -9.4291   -1.0926   53.5350 C.3     1  ZINC000642096826    0.1200
      4 N4         -9.5530   -0.0528   54.5594 N.am    1  ZINC000642096826   -0.6200
      5 C5         -8.8637    1.2288   54.3895 C.3     1  ZINC000642096826    0.1100
      6 C6         -7.3802    0.9773   54.1125 C.3     1  ZINC000642096826   -0.1400
      7 C7         -6.6943    2.3006   53.7672 C.3     1  ZINC000642096826   -0.1500
      8 C8        -10.3012   -0.2750   55.6582 C.2     1  ZINC000642096826    0.5200
      9 O9        -10.4051    0.5865   56.5054 O.2     1  ZINC000642096826   -0.5200
     10 C10       -11.0090   -1.5938   55.8338 C.3     1  ZINC000642096826    0.0400
     11 N11       -11.7403   -1.5912   57.1078 N.3     1  ZINC000642096826   -0.5200
     12 C12       -13.1687   -1.8606   56.8953 C.3     1  ZINC000642096826    0.0100
     13 C13       -11.1576   -2.5546   58.0513 C.3     1  ZINC000642096826    0.0900
     14 C14       -10.9180   -1.8779   59.3763 C.ar    1  ZINC000642096826   -0.0500
     15 C15        -9.6238   -1.6509   59.8097 C.ar    1  ZINC000642096826   -0.1000
     16 C16        -9.3975   -1.0323   61.0219 C.ar    1  ZINC000642096826   -0.0600
     17 C17       -10.4778   -0.6349   61.8114 C.ar    1  ZINC000642096826   -0.1400
     18 C18       -10.2428    0.0289   63.1114 C.2     1  ZINC000642096826    0.5600
     19 O19       -10.7666    1.0993   63.3508 O.2     1  ZINC000642096826   -0.5300
     20 N20        -9.4475   -0.5528   64.0310 N.am    1  ZINC000642096826   -0.7000
     21 C21        -9.2132    0.1058   65.3185 C.3     1  ZINC000642096826    0.0800
     22 C22        -7.7795    0.1235   65.8525 C.3     1  ZINC000642096826   -0.1900
     23 C23        -8.4097    1.4078   65.3101 C.3     1  ZINC000642096826   -0.1900
     24 C24       -11.7809   -0.8666   61.3682 C.ar    1  ZINC000642096826   -0.0900
     25 C25       -11.9932   -1.4814   60.1516 C.ar    1  ZINC000642096826   -0.1200
     26 H26       -11.8580   -1.1390   52.2985 H       1  ZINC000642096826    0.0600
     27 H27       -11.5508    0.5024   52.9146 H       1  ZINC000642096826    0.0600
     28 H28       -11.5678    0.1988   51.1609 H       1  ZINC000642096826    0.0600
     29 H29        -9.5532   -1.2288   51.3886 H       1  ZINC000642096826    0.0600
     30 H30        -9.2459    0.4126   52.0047 H       1  ZINC000642096826    0.0600
     31 H31       -10.0992   -1.9187   53.7727 H       1  ZINC000642096826    0.0800
     32 H32        -8.4014   -1.4547   53.5073 H       1  ZINC000642096826    0.0800
     33 H33        -9.3033    1.7694   53.5513 H       1  ZINC000642096826    0.0800
     34 H34        -8.9684    1.8210   55.2987 H       1  ZINC000642096826    0.0800
     35 H35        -6.9132    0.5464   54.9982 H       1  ZINC000642096826    0.0700
     36 H36        -7.2788    0.2862   53.2758 H       1  ZINC000642096826    0.0700
     37 H37        -5.6375    2.1214   53.5698 H       1  ZINC000642096826    0.0600
     38 H38        -7.1614    2.7315   52.8814 H       1  ZINC000642096826    0.0600
     39 H39        -6.7957    2.9916   54.6039 H       1  ZINC000642096826    0.0600
     40 H40       -11.7101   -1.7421   55.0126 H       1  ZINC000642096826    0.0600
     41 H41       -10.2768   -2.4013   55.8368 H       1  ZINC000642096826    0.1000
     42 H42       -13.2883   -2.8369   56.4256 H       1  ZINC000642096826    0.0200
     43 H43       -13.6865   -1.8529   57.8544 H       1  ZINC000642096826    0.0700
     44 H44       -13.5911   -1.0918   56.2483 H       1  ZINC000642096826    0.0900
     45 H45       -11.8446   -3.3896   58.1887 H       1  ZINC000642096826    0.0500
     46 H46       -10.2114   -2.9239   57.6556 H       1  ZINC000642096826    0.0900
     47 H47        -8.7888   -1.9589   59.1979 H       1  ZINC000642096826    0.1300
     48 H48        -8.3868   -0.8563   61.3595 H       1  ZINC000642096826    0.1400
     49 H49        -9.0304   -1.4075   63.8404 H       1  ZINC000642096826    0.4000
     50 H50       -10.0204    0.0173   66.0456 H       1  ZINC000642096826    0.1400
     51 H51        -7.6432    0.0463   66.9311 H       1  ZINC000642096826    0.1000
     52 H52        -7.0106   -0.3550   65.2458 H       1  ZINC000642096826    0.1000
     53 H53        -8.0553    1.7743   64.3466 H       1  ZINC000642096826    0.1000
     54 H54        -8.6879    2.1757   66.0320 H       1  ZINC000642096826    0.1100
     55 H55       -12.6210   -0.5617   61.9745 H       1  ZINC000642096826    0.1200
     56 H56       -13.0010   -1.6609   59.8072 H       1  ZINC000642096826    0.1300
@<TRIPOS>BOND
     1     1     2    1
     2     1    26    1
     3     1    27    1
     4     1    28    1
     5     2     3    1
     6     2    29    1
     7     2    30    1
     8     3     4    1
     9     3    31    1
    10     3    32    1
    11     4     5    1
    12     4     8   am
    13     5     6    1
    14     5    33    1
    15     5    34    1
    16     6     7    1
    17     6    35    1
    18     6    36    1
    19     7    37    1
    20     7    38    1
    21     7    39    1
    22     8     9    2
    23     8    10    1
    24    10    11    1
    25    10    40    1
    26    10    41    1
    27    11    12    1
    28    11    13    1
    29    12    42    1
    30    12    43    1
    31    12    44    1
    32    13    14    1
    33    13    45    1
    34    13    46    1
    35    14    25   ar
    36    14    15   ar
    37    15    16   ar
    38    15    47    1
    39    16    17   ar
    40    16    48    1
    41    17    18    1
    42    17    24   ar
    43    18    19    2
    44    18    20   am
    45    20    21    1
    46    20    49    1
    47    21    23    1
    48    21    22    1
    49    21    50    1
    50    22    23    1
    51    22    51    1
    52    22    52    1
    53    23    53    1
    54    23    54    1
    55    24    25   ar
    56    24    55    1
    57    25    56    1
@<TRIPOS>SUBSTRUCTURE
     1 ZINC000642096826        1 TEMP              0 ****  ****    0 ROOT


##########                                Name:    ZINC000772422035
##########                DOCK_Rotatable_Bonds:                  10
##########                         Heavy_Atoms:                  25
##########                    Molecular_Weight:             348.399
##########                DOCK_Rotatable_Bonds:                  10
##########                       Formal_Charge:          0.00999987
##########                     HBond_Acceptors:                   7
##########                        HBond_Donors:                   0
##########                         Heavy_Atoms:                  25
##########                          Grid_Score:          -32.829227
##########                     Grid_vdw_energy:          -32.063213
##########                      Grid_es_energy:           -0.766013
##########           Internal_energy_repulsive:           16.663469

@<TRIPOS>MOLECULE
ZINC000772422035
 49 50 1 0 0
SMALL
USER_CHARGES


@<TRIPOS>ATOM
      1 C1        -10.0311    0.2898   66.5548 C.3     1  ZINC000772422035    0.0300
      2 O2         -8.9646   -0.6339   66.3286 O.3     1  ZINC000772422035   -0.3900
      3 C3         -7.7973   -0.0443   65.7526 C.3     1  ZINC000772422035    0.0600
      4 C4         -8.1532    0.5744   64.3994 C.3     1  ZINC000772422035    0.0700
      5 O5         -8.7564   -0.4173   63.5660 O.3     1  ZINC000772422035   -0.3000
      6 C6         -9.1822   -0.0170   62.3417 C.ar    1  ZINC000772422035    0.3300
      7 C7         -9.7090   -0.9497   61.4578 C.ar    1  ZINC000772422035   -0.1700
      8 C8        -10.1400   -0.5283   60.2117 C.ar    1  ZINC000772422035   -0.0200
      9 C9        -10.7180   -1.5088   59.2239 C.3     1  ZINC000772422035    0.1100
     10 O10       -10.3290   -1.1262   57.8783 O.3     1  ZINC000772422035   -0.3500
     11 C11       -10.9396   -1.7593   56.8643 C.2     1  ZINC000772422035    0.4700
     12 O12       -11.8857   -2.4783   57.0832 O.2     1  ZINC000772422035   -0.5000
     13 C13       -10.4450   -1.5732   55.4530 C.3     1  ZINC000772422035   -0.1100
     14 C14       -10.3608   -0.0790   55.1350 C.3     1  ZINC000772422035    0.0000
     15 H15       -10.5636    0.4966   56.0381 H       1  ZINC000772422035    0.1000
     16 C16       -11.3939    0.2734   54.0628 C.3     1  ZINC000772422035   -0.1500
     17 C17        -8.9798    0.2499   54.6292 C.2     1  ZINC000772422035   -0.2000
     18 C18        -8.3762   -0.1966   53.5018 C.2     1  ZINC000772422035   -0.0200
     19 C19        -8.9574   -1.1398   52.4803 C.3     1  ZINC000772422035   -0.0800
     20 O20        -7.1599    0.3661   53.4743 O.3     1  ZINC000772422035    0.1000
     21 N21        -6.9778    1.0785   54.4342 N.2     1  ZINC000772422035   -0.3600
     22 C22        -8.0166    1.1006   55.2185 C.2     1  ZINC000772422035    0.0300
     23 C23        -8.1603    1.8725   56.5048 C.3     1  ZINC000772422035   -0.0800
     24 C24       -10.0280    0.8178   59.8929 C.ar    1  ZINC000772422035   -0.1900
     25 C25        -9.4941    1.6897   60.8212 C.ar    1  ZINC000772422035    0.1400
     26 N26        -9.0968    1.2590   62.0033 N.ar    1  ZINC000772422035   -0.5300
     27 H27       -10.8798   -0.2353   66.9933 H       1  ZINC000772422035    0.0900
     28 H28        -9.6962    1.0717   67.2363 H       1  ZINC000772422035    0.0400
     29 H29       -10.3311    0.7376   65.6073 H       1  ZINC000772422035    0.0400
     30 H30        -7.4158    0.7307   66.4175 H       1  ZINC000772422035    0.0600
     31 H31        -7.0346   -0.8104   65.6126 H       1  ZINC000772422035    0.0700
     32 H32        -8.8521    1.3975   64.5488 H       1  ZINC000772422035    0.0800
     33 H33        -7.2478    0.9489   63.9217 H       1  ZINC000772422035    0.0800
     34 H34        -9.7810   -1.9900   61.7388 H       1  ZINC000772422035    0.1400
     35 H35       -10.3409   -2.5081   59.4409 H       1  ZINC000772422035    0.0900
     36 H36       -11.8052   -1.5056   59.3026 H       1  ZINC000772422035    0.0900
     37 H37        -9.4571   -2.0225   55.3520 H       1  ZINC000772422035    0.1100
     38 H38       -11.1354   -2.0538   54.7597 H       1  ZINC000772422035    0.1100
     39 H39       -11.2707   -0.3908   53.2074 H       1  ZINC000772422035    0.0600
     40 H40       -12.3971    0.1559   54.4725 H       1  ZINC000772422035    0.0800
     41 H41       -11.2498    1.3060   53.7449 H       1  ZINC000772422035    0.0600
     42 H42        -9.5563   -0.5763   51.7648 H       1  ZINC000772422035    0.0900
     43 H43        -8.1495   -1.6499   51.9557 H       1  ZINC000772422035    0.0900
     44 H44        -9.5866   -1.8754   52.9813 H       1  ZINC000772422035    0.0900
     45 H45        -8.6446    2.8278   56.3031 H       1  ZINC000772422035    0.0800
     46 H46        -8.7656    1.2992   57.2069 H       1  ZINC000772422035    0.0800
     47 H47        -7.1742    2.0487   56.9349 H       1  ZINC000772422035    0.0800
     48 H48       -10.3545    1.1795   58.9291 H       1  ZINC000772422035    0.1400
     49 H49        -9.4048    2.7382   60.5781 H       1  ZINC000772422035    0.1700
@<TRIPOS>BOND
     1     1     2    1
     2     1    27    1
     3     1    28    1
     4     1    29    1
     5     2     3    1
     6     3     4    1
     7     3    30    1
     8     3    31    1
     9     4     5    1
    10     4    32    1
    11     4    33    1
    12     5     6    1
    13     6    26   ar
    14     6     7   ar
    15     7     8   ar
    16     7    34    1
    17     8     9    1
    18     8    24   ar
    19     9    10    1
    20     9    35    1
    21     9    36    1
    22    10    11    1
    23    11    12    2
    24    11    13    1
    25    13    14    1
    26    13    37    1
    27    13    38    1
    28    14    15    1
    29    14    16    1
    30    14    17    1
    31    16    39    1
    32    16    40    1
    33    16    41    1
    34    17    22    1
    35    17    18    2
    36    18    19    1
    37    18    20    1
    38    19    42    1
    39    19    43    1
    40    19    44    1
    41    20    21    1
    42    21    22    2
    43    22    23    1
    44    23    45    1
    45    23    46    1
    46    23    47    1
    47    24    25   ar
    48    24    48    1
    49    25    26   ar
    50    25    49    1
@<TRIPOS>SUBSTRUCTURE
     1 ZINC000772422035        1 TEMP              0 ****  ****    0 ROOT


##########                                Name:    ZINC000058043838
##########                DOCK_Rotatable_Bonds:                   8
##########                         Heavy_Atoms:                  29
##########                    Molecular_Weight:             412.469
##########                DOCK_Rotatable_Bonds:                   8
##########                       Formal_Charge:           0.0200001
##########                     HBond_Acceptors:                   9
##########                        HBond_Donors:                   0
##########                         Heavy_Atoms:                  29
##########                          Grid_Score:          -32.808960
##########                     Grid_vdw_energy:          -31.996870
##########                      Grid_es_energy:           -0.812090
##########           Internal_energy_repulsive:           11.566852

@<TRIPOS>MOLECULE
ZINC000058043838
 49 51 1 0 0
SMALL
USER_CHARGES


@<TRIPOS>ATOM
      1 C1        -15.1520   -3.7938   59.1129 C.3     1  ZINC000058043838    0.0300
      2 O2        -14.6716   -3.1696   60.3054 O.3     1  ZINC000058043838   -0.3800
      3 C3        -13.5859   -2.2654   60.0913 C.3     1  ZINC000058043838    0.0300
      4 C4        -14.0924   -1.0272   59.3490 C.3     1  ZINC000058043838    0.1000
      5 N5        -12.9597   -0.1589   59.0181 N.am    1  ZINC000058043838   -0.5200
      6 C6        -12.4322   -0.1827   57.7780 C.2     1  ZINC000058043838    0.5100
      7 O7        -11.4955    0.5372   57.5036 O.2     1  ZINC000058043838   -0.4500
      8 C8        -13.0064   -1.1037   56.7324 C.3     1  ZINC000058043838   -0.0900
      9 C9        -12.1486   -1.0547   55.4944 C.ar    1  ZINC000058043838   -0.1400
     10 C10       -12.5953   -0.4010   54.3564 C.ar    1  ZINC000058043838   -0.0500
     11 C11       -11.7721   -0.3812   53.2406 C.ar    1  ZINC000058043838   -0.1700
     12 C12       -10.5426   -1.0092   53.2996 C.ar    1  ZINC000058043838    0.1300
     13 C13        -9.6395   -0.9935   52.0933 C.3     1  ZINC000058043838   -0.1100
     14 N14       -10.1501   -1.6218   54.3997 N.ar    1  ZINC000058043838   -0.4800
     15 C15       -10.9041   -1.6563   55.4808 C.ar    1  ZINC000058043838    0.1200
     16 C16       -12.4293    0.6890   59.9826 C.2     1  ZINC000058043838    0.3100
     17 N17       -11.6919    0.3183   60.9825 N.2     1  ZINC000058043838   -0.4700
     18 C18       -11.2721    1.2687   61.8059 C.2     1  ZINC000058043838    0.1100
     19 C19       -10.4228    0.9767   62.9862 C.ar    1  ZINC000058043838    0.0400
     20 C20       -11.0066    0.7783   64.2362 C.ar    1  ZINC000058043838   -0.0800
     21 C21       -10.2114    0.5065   65.3309 C.ar    1  ZINC000058043838   -0.0500
     22 C22        -8.8374    0.4308   65.1893 C.ar    1  ZINC000058043838   -0.0400
     23 N23        -7.9897    0.1388   66.3673 N.pl3   1  ZINC000058043838    0.0300
     24 O24        -8.5022   -0.0342   67.4585 O.2     1  ZINC000058043838   -0.1600
     25 O25        -6.7797    0.0716   66.2452 O.2     1  ZINC000058043838   -0.1600
     26 C26        -8.2525    0.6264   63.9510 C.ar    1  ZINC000058043838   -0.0500
     27 C27        -9.0382    0.8941   62.8484 C.ar    1  ZINC000058043838   -0.1100
     28 C28       -11.6694    2.5161   61.4968 C.2     1  ZINC000058043838   -0.2600
     29 S29       -12.6476    2.4358   60.0332 S.3     1  ZINC000058043838    0.1500
     30 H30       -15.5018   -3.0298   58.4186 H       1  ZINC000058043838    0.0500
     31 H31       -14.3456   -4.3631   58.6506 H       1  ZINC000058043838    0.0400
     32 H32       -15.9749   -4.4645   59.3601 H       1  ZINC000058043838    0.0900
     33 H33       -13.1668   -1.9669   61.0521 H       1  ZINC000058043838    0.0600
     34 H34       -12.8162   -2.7565   59.4959 H       1  ZINC000058043838    0.0800
     35 H35       -14.5952   -1.3337   58.4318 H       1  ZINC000058043838    0.1200
     36 H36       -14.7929   -0.4844   59.9835 H       1  ZINC000058043838    0.1000
     37 H37       -13.0289   -2.1226   57.1187 H       1  ZINC000058043838    0.1100
     38 H38       -14.0194   -0.7862   56.4854 H       1  ZINC000058043838    0.1100
     39 H39       -13.5615    0.0810   54.3392 H       1  ZINC000058043838    0.1300
     40 H40       -12.0880    0.1185   52.3367 H       1  ZINC000058043838    0.1400
     41 H41        -8.9923   -0.1175   52.1353 H       1  ZINC000058043838    0.0800
     42 H42        -9.0289   -1.8963   52.0848 H       1  ZINC000058043838    0.0800
     43 H43       -10.2443   -0.9553   51.1873 H       1  ZINC000058043838    0.0800
     44 H44       -10.5490   -2.1678   56.3633 H       1  ZINC000058043838    0.1500
     45 H45       -12.0792    0.8375   64.3480 H       1  ZINC000058043838    0.1600
     46 H46       -10.6626    0.3529   66.3000 H       1  ZINC000058043838    0.1600
     47 H47        -7.1793    0.5661   63.8463 H       1  ZINC000058043838    0.1600
     48 H48        -8.5806    1.0462   61.8821 H       1  ZINC000058043838    0.1500
     49 H49       -11.4274    3.4125   62.0483 H       1  ZINC000058043838    0.1800
@<TRIPOS>BOND
     1     1     2    1
     2     1    30    1
     3     1    31    1
     4     1    32    1
     5     2     3    1
     6     3     4    1
     7     3    33    1
     8     3    34    1
     9     4     5    1
    10     4    35    1
    11     4    36    1
    12     5     6   am
    13     5    16    1
    14     6     7    2
    15     6     8    1
    16     8     9    1
    17     8    37    1
    18     8    38    1
    19     9    15   ar
    20     9    10   ar
    21    10    11   ar
    22    10    39    1
    23    11    12   ar
    24    11    40    1
    25    12    13    1
    26    12    14   ar
    27    13    41    1
    28    13    42    1
    29    13    43    1
    30    14    15   ar
    31    15    44    1
    32    16    29    1
    33    16    17    2
    34    17    18    1
    35    18    19    1
    36    18    28    2
    37    19    27   ar
    38    19    20   ar
    39    20    21   ar
    40    20    45    1
    41    21    22   ar
    42    21    46    1
    43    22    23    1
    44    22    26   ar
    45    23    24    2
    46    23    25    2
    47    26    27   ar
    48    26    47    1
    49    27    48    1
    50    28    29    1
    51    28    49    1
@<TRIPOS>SUBSTRUCTURE
     1 ZINC000058043838        1 TEMP              0 ****  ****    0 ROOT


##########                                Name:    ZINC001105194920
##########                DOCK_Rotatable_Bonds:                   8
##########                         Heavy_Atoms:                  25
##########                    Molecular_Weight:             346.392
##########                DOCK_Rotatable_Bonds:                   8
##########                       Formal_Charge:          -0.0100007
##########                     HBond_Acceptors:                  10
##########                        HBond_Donors:                   3
##########                         Heavy_Atoms:                  25
##########                          Grid_Score:          -32.800533
##########                     Grid_vdw_energy:          -31.086681
##########                      Grid_es_energy:           -1.713853
##########           Internal_energy_repulsive:           12.236926

@<TRIPOS>MOLECULE
ZINC001105194920
 47 49 1 0 0
SMALL
USER_CHARGES


@<TRIPOS>ATOM
      1 C1         -3.6174    3.7968   53.8286 C.3     1  ZINC001105194920    0.0300
      2 O2         -4.6551    3.8752   52.8492 O.3     1  ZINC001105194920   -0.3900
      3 C3         -5.6223    2.8274   52.9420 C.3     1  ZINC001105194920    0.0700
      4 C4         -6.6422    3.1699   54.0299 C.3     1  ZINC001105194920    0.0900
      5 H5         -6.1811    3.8287   54.7658 H       1  ZINC001105194920    0.0900
      6 C6         -7.8450    3.8736   53.3981 C.3     1  ZINC001105194920   -0.1800
      7 N7         -7.0881    1.9352   54.6894 N.3     1  ZINC001105194920   -0.6800
      8 C8         -7.3043    0.8631   53.7087 C.3     1  ZINC001105194920    0.1400
      9 C9         -8.5618    0.1094   54.0575 C.2     1  ZINC001105194920   -0.0200
     10 C10        -9.5815    0.5497   54.8310 C.2     1  ZINC001105194920   -0.0200
     11 N11       -10.4879   -0.4544   54.8672 N.pl3   1  ZINC001105194920   -0.2800
     12 C12       -11.7637   -0.4336   55.5871 C.3     1  ZINC001105194920    0.1000
     13 C13       -12.2547   -1.8273   56.0187 C.3     1  ZINC001105194920    0.1100
     14 N14       -11.5161   -1.5884   57.2739 N.am    1  ZINC001105194920   -0.6300
     15 C15       -10.9655   -2.3843   58.2120 C.2     1  ZINC001105194920    0.6200
     16 O16       -11.0346   -3.5929   58.1004 O.2     1  ZINC001105194920   -0.5400
     17 C17       -10.2782   -1.7879   59.3758 C.ar    1  ZINC001105194920   -0.0600
     18 N18        -9.1054   -1.1805   59.2202 N.ar    1  ZINC001105194920   -0.3700
     19 C19        -8.4951   -0.6497   60.2603 C.ar    1  ZINC001105194920   -0.0200
     20 C20        -9.0695   -0.7204   61.5214 C.ar    1  ZINC001105194920    0.1500
     21 N21       -10.2333   -1.3207   61.6914 N.ar    1  ZINC001105194920   -0.5100
     22 C22       -10.8629   -1.8547   60.6512 C.ar    1  ZINC001105194920    0.4200
     23 N23       -12.0819   -2.4838   60.8247 N.pl3   1  ZINC001105194920   -0.8100
     24 C24       -11.6227   -0.1281   57.0894 C.3     1  ZINC001105194920    0.1100
     25 N25       -10.0367   -1.4307   54.1602 N.2     1  ZINC001105194920   -0.0800
     26 N26        -8.8925   -1.1239   53.6588 N.2     1  ZINC001105194920   -0.2600
     27 H27        -3.0821    2.8540   53.7161 H       1  ZINC001105194920    0.0400
     28 H28        -2.9245    4.6268   53.6910 H       1  ZINC001105194920    0.0800
     29 H29        -4.0544    3.8498   54.8258 H       1  ZINC001105194920    0.0400
     30 H30        -6.1339    2.7194   51.9856 H       1  ZINC001105194920    0.0600
     31 H31        -5.1221    1.8925   53.1943 H       1  ZINC001105194920    0.0500
     32 H32        -8.3060    3.2147   52.6622 H       1  ZINC001105194920    0.0700
     33 H33        -8.5716    4.1175   54.1731 H       1  ZINC001105194920    0.0500
     34 H34        -7.5142    4.7897   52.9089 H       1  ZINC001105194920    0.0600
     35 H35        -6.4324    1.6481   55.4005 H       1  ZINC001105194920    0.3500
     36 H36        -7.4042    1.2959   52.7134 H       1  ZINC001105194920    0.0900
     37 H37        -6.4552    0.1799   53.7243 H       1  ZINC001105194920    0.0500
     38 H38        -9.6564    1.5091   55.3212 H       1  ZINC001105194920    0.1800
     39 H39       -12.5242    0.1660   55.0868 H       1  ZINC001105194920    0.1500
     40 H40       -13.3348   -1.8914   56.1498 H       1  ZINC001105194920    0.1200
     41 H41       -11.8487   -2.6415   55.4183 H       1  ZINC001105194920    0.1000
     42 H42        -7.5427   -0.1574   60.1305 H       1  ZINC001105194920    0.1800
     43 H43        -8.5620   -0.2825   62.3682 H       1  ZINC001105194920    0.1800
     44 H44       -12.5163   -2.4689   61.6918 H       1  ZINC001105194920    0.4000
     45 H45       -12.5028   -2.9400   60.0792 H       1  ZINC001105194920    0.4300
     46 H46       -10.7121    0.4145   57.3437 H       1  ZINC001105194920    0.1100
     47 H47       -12.5172    0.3069   57.5351 H       1  ZINC001105194920    0.1200
@<TRIPOS>BOND
     1     1     2    1
     2     1    27    1
     3     1    28    1
     4     1    29    1
     5     2     3    1
     6     3     4    1
     7     3    30    1
     8     3    31    1
     9     4     5    1
    10     4     6    1
    11     4     7    1
    12     6    32    1
    13     6    33    1
    14     6    34    1
    15     7     8    1
    16     7    35    1
    17     8     9    1
    18     8    36    1
    19     8    37    1
    20     9    26    1
    21     9    10    2
    22    10    11    1
    23    10    38    1
    24    11    12    1
    25    11    25    1
    26    12    24    1
    27    12    13    1
    28    12    39    1
    29    13    14    1
    30    13    40    1
    31    13    41    1
    32    14    15   am
    33    14    24    1
    34    15    16    2
    35    15    17    1
    36    17    22   ar
    37    17    18   ar
    38    18    19   ar
    39    19    20   ar
    40    19    42    1
    41    20    21   ar
    42    20    43    1
    43    21    22   ar
    44    22    23    1
    45    23    44    1
    46    23    45    1
    47    24    46    1
    48    24    47    1
    49    25    26    2
@<TRIPOS>SUBSTRUCTURE
     1 ZINC001105194920        1 TEMP              0 ****  ****    0 ROOT


##########                                Name:    ZINC000563265674
##########                DOCK_Rotatable_Bonds:                   7
##########                         Heavy_Atoms:                  25
##########                    Molecular_Weight:             386.859
##########                DOCK_Rotatable_Bonds:                   7
##########                       Formal_Charge:          0.00999963
##########                     HBond_Acceptors:                  10
##########                        HBond_Donors:                   2
##########                         Heavy_Atoms:                  25
##########                          Grid_Score:          -32.789207
##########                     Grid_vdw_energy:          -30.809229
##########                      Grid_es_energy:           -1.979979
##########           Internal_energy_repulsive:           12.578028

@<TRIPOS>MOLECULE
ZINC000563265674
 44 45 1 0 0
SMALL
USER_CHARGES


@<TRIPOS>ATOM
      1 C1        -10.7428   -3.0517   58.8394 C.3     1  ZINC000563265674   -0.0600
      2 C2        -10.7348   -1.9912   59.9100 C.2     1  ZINC000563265674    0.1700
      3 N3        -11.7229   -1.6849   60.6964 N.2     1  ZINC000563265674   -0.3800
      4 O4        -11.3991   -0.7898   61.4483 O.3     1  ZINC000563265674    0.0900
      5 C5        -10.1354   -0.4292   61.2056 C.2     1  ZINC000563265674    0.1900
      6 C6         -9.3557    0.6450   61.9194 C.3     1  ZINC000563265674    0.2100
      7 C7        -10.3258    1.6051   62.6107 C.3     1  ZINC000563265674   -0.1400
      8 C8         -8.4420    0.0025   62.9649 C.3     1  ZINC000563265674   -0.1800
      9 N9         -8.5417    1.3870   60.9474 N.3     1  ZINC000563265674   -0.6600
     10 C10        -9.3733    1.9120   59.8561 C.3     1  ZINC000563265674    0.0400
     11 C11        -8.7712    1.5188   58.5319 C.2     1  ZINC000563265674    0.5200
     12 O12        -8.0900    0.5187   58.4484 O.2     1  ZINC000563265674   -0.4900
     13 N13        -8.9896    2.2783   57.4402 N.am    1  ZINC000563265674   -0.6700
     14 C14        -8.4303    1.9130   56.2100 C.ar    1  ZINC000563265674    0.1400
     15 C15        -8.9665    0.8551   55.4888 C.ar    1  ZINC000563265674   -0.0300
     16 C16        -8.4127    0.4971   54.2748 C.ar    1  ZINC000563265674   -0.6400
     17 S17        -9.0933   -0.8455   53.3589 S.o2    1  ZINC000563265674    2.5000
     18 C18       -10.4303   -0.0984   52.3868 C.3     1  ZINC000563265674   -0.6500
     19 O19        -8.0332   -1.2637   52.5101 O.2     1  ZINC000563265674   -0.9300
     20 O20        -9.6233   -1.7135   54.3512 O.2     1  ZINC000563265674   -0.9300
     21 C21        -7.3253    1.1912   53.7774 C.ar    1  ZINC000563265674   -0.0300
     22 C22        -6.7878    2.2457   54.4929 C.ar    1  ZINC000563265674   -0.1100
     23 C23        -7.3405    2.6125   55.7052 C.ar    1  ZINC000563265674   -0.0200
     24 Cl24       -6.6659    3.9365   56.6028 Cl      1  ZINC000563265674   -0.0500
     25 N25        -9.7019   -1.1918   60.2309 N.2     1  ZINC000563265674   -0.4700
     26 H26       -10.4205   -4.0015   59.2663 H       1  ZINC000563265674    0.0900
     27 H27       -11.7513   -3.1567   58.4395 H       1  ZINC000563265674    0.0900
     28 H28       -10.0623   -2.7641   58.0379 H       1  ZINC000563265674    0.0900
     29 H29       -10.9298    1.0545   63.3318 H       1  ZINC000563265674    0.0800
     30 H30        -9.7619    2.3820   63.1270 H       1  ZINC000563265674    0.0800
     31 H31       -10.9767    2.0628   61.8658 H       1  ZINC000563265674    0.0700
     32 H32        -7.7509   -0.6815   62.4724 H       1  ZINC000563265674    0.0700
     33 H33        -7.8781    0.7794   63.4812 H       1  ZINC000563265674    0.0800
     34 H34        -9.0460   -0.5482   63.6861 H       1  ZINC000563265674    0.0800
     35 H35        -8.0266    2.1284   61.3982 H       1  ZINC000563265674    0.3600
     36 H36       -10.3790    1.4992   59.9349 H       1  ZINC000563265674    0.1200
     37 H37        -9.4203    2.9988   59.9256 H       1  ZINC000563265674    0.0800
     38 H38        -9.5344    3.0780   57.5068 H       1  ZINC000563265674    0.4200
     39 H39        -9.8156    0.3119   55.8766 H       1  ZINC000563265674    0.1700
     40 H40       -10.0187    0.6718   51.7346 H       1  ZINC000563265674    0.1300
     41 H41       -10.9129   -0.8665   51.7824 H       1  ZINC000563265674    0.1400
     42 H42       -11.1627    0.3482   53.0593 H       1  ZINC000563265674    0.1400
     43 H43        -6.8945    0.9091   52.8281 H       1  ZINC000563265674    0.1500
     44 H44        -5.9382    2.7857   54.1018 H       1  ZINC000563265674    0.1500
@<TRIPOS>BOND
     1     1     2    1
     2     1    26    1
     3     1    27    1
     4     1    28    1
     5     2    25    1
     6     2     3    2
     7     3     4    1
     8     4     5    1
     9     5     6    1
    10     5    25    2
    11     6     7    1
    12     6     8    1
    13     6     9    1
    14     7    29    1
    15     7    30    1
    16     7    31    1
    17     8    32    1
    18     8    33    1
    19     8    34    1
    20     9    10    1
    21     9    35    1
    22    10    11    1
    23    10    36    1
    24    10    37    1
    25    11    12    2
    26    11    13   am
    27    13    14    1
    28    13    38    1
    29    14    23   ar
    30    14    15   ar
    31    15    16   ar
    32    15    39    1
    33    16    17    1
    34    16    21   ar
    35    17    18    1
    36    17    19    2
    37    17    20    2
    38    18    40    1
    39    18    41    1
    40    18    42    1
    41    21    22   ar
    42    21    43    1
    43    22    23   ar
    44    22    44    1
    45    23    24    1
@<TRIPOS>SUBSTRUCTURE
     1 ZINC000563265674        1 TEMP              0 ****  ****    0 ROOT


##########                                Name:    ZINC000859496582
##########                DOCK_Rotatable_Bonds:                  10
##########                         Heavy_Atoms:                  26
##########                    Molecular_Weight:             361.438
##########                DOCK_Rotatable_Bonds:                  10
##########                       Formal_Charge:           0.0100006
##########                     HBond_Acceptors:                   6
##########                        HBond_Donors:                   0
##########                         Heavy_Atoms:                  26
##########                          Grid_Score:          -32.725430
##########                     Grid_vdw_energy:          -30.220652
##########                      Grid_es_energy:           -2.504779
##########           Internal_energy_repulsive:           85.788811

@<TRIPOS>MOLECULE
ZINC000859496582
 53 54 1 0 0
SMALL
USER_CHARGES


@<TRIPOS>ATOM
      1 C1         -9.2468    2.6561   67.2424 C.3     1  ZINC000859496582    0.0300
      2 O2         -8.2694    1.5833   67.2854 O.3     1  ZINC000859496582   -0.3600
      3 C3         -8.5293    0.4922   66.5480 C.2     1  ZINC000859496582    0.4600
      4 O4         -7.7529   -0.4336   66.5445 O.2     1  ZINC000859496582   -0.5100
      5 C5         -9.7895    0.4219   65.7246 C.3     1  ZINC000859496582   -0.1100
      6 C6         -9.6889    1.4018   64.5538 C.3     1  ZINC000859496582   -0.1100
      7 C7         -8.6610    0.8865   63.5444 C.3     1  ZINC000859496582   -0.1200
      8 C8         -9.1556   -0.4289   62.9393 C.3     1  ZINC000859496582    0.0700
      9 O9         -8.7860   -0.4854   61.5362 O.3     1  ZINC000859496582   -0.3500
     10 C10        -9.5702    0.1783   60.6724 C.2     1  ZINC000859496582    0.4700
     11 O11       -10.7392    0.3489   60.9259 O.2     1  ZINC000859496582   -0.5000
     12 C12        -8.9926    0.7108   59.3863 C.3     1  ZINC000859496582   -0.1000
     13 H13        -8.0684    0.1809   59.1557 H       1  ZINC000859496582    0.1200
     14 C14        -8.7003    2.2053   59.5378 C.3     1  ZINC000859496582   -0.1100
     15 C15        -8.0831    2.7400   58.2434 C.3     1  ZINC000859496582   -0.1300
     16 C16        -9.0789    2.5562   57.0938 C.3     1  ZINC000859496582    0.1100
     17 N17        -9.4765    1.1430   57.0340 N.am    1  ZINC000859496582   -0.6100
     18 C18        -9.3645    0.4462   55.8858 C.2     1  ZINC000859496582    0.5700
     19 O19        -9.6968   -0.7225   55.8492 O.2     1  ZINC000859496582   -0.5300
     20 C20        -8.8374    1.1032   54.6708 C.ar    1  ZINC000859496582   -0.1400
     21 C21        -7.4613    1.1561   54.4434 C.ar    1  ZINC000859496582   -0.0900
     22 C22        -6.9760    1.7703   53.3075 C.ar    1  ZINC000859496582   -0.1200
     23 C23        -7.8502    2.3335   52.3947 C.ar    1  ZINC000859496582   -0.0600
     24 C24        -7.3129    3.0032   51.1563 C.3     1  ZINC000859496582   -0.1200
     25 C25        -9.2154    2.2841   52.6139 C.ar    1  ZINC000859496582   -0.1200
     26 C26        -9.7140    1.6683   53.7432 C.ar    1  ZINC000859496582   -0.0600
     27 C27        -9.9983    0.5033   58.2495 C.3     1  ZINC000859496582    0.1100
     28 H28       -10.2087    2.2857   67.5967 H       1  ZINC000859496582    0.0600
     29 H29        -8.9154    3.4753   67.8805 H       1  ZINC000859496582    0.1000
     30 H30        -9.3499    3.0129   66.2177 H       1  ZINC000859496582    0.0600
     31 H31        -9.9171   -0.5904   65.3412 H       1  ZINC000859496582    0.1100
     32 H32       -10.6451    0.6854   66.3464 H       1  ZINC000859496582    0.1100
     33 H33       -10.6613    1.4900   64.0693 H       1  ZINC000859496582    0.0800
     34 H34        -9.3771    2.3787   64.9233 H       1  ZINC000859496582    0.0800
     35 H35        -8.5283    1.6235   62.7525 H       1  ZINC000859496582    0.0800
     36 H36        -7.7091    0.7193   64.0485 H       1  ZINC000859496582    0.0800
     37 H37        -8.7007   -1.2662   63.4687 H       1  ZINC000859496582    0.0700
     38 H38       -10.2401   -0.4864   63.0320 H       1  ZINC000859496582    0.0700
     39 H39        -9.6286    2.7379   59.7446 H       1  ZINC000859496582    0.0800
     40 H40        -8.0034    2.3573   60.3621 H       1  ZINC000859496582    0.0800
     41 H41        -7.8536    3.7991   58.3602 H       1  ZINC000859496582    0.0900
     42 H42        -7.1676    2.1911   58.0230 H       1  ZINC000859496582    0.0700
     43 H43        -9.9580    3.1761   57.2693 H       1  ZINC000859496582    0.0700
     44 H44        -8.6084    2.8435   56.1535 H       1  ZINC000859496582    0.1000
     45 H45        -6.7779    0.7174   55.1555 H       1  ZINC000859496582    0.1300
     46 H46        -5.9115    1.8119   53.1304 H       1  ZINC000859496582    0.1300
     47 H47        -7.2324    2.2708   50.3531 H       1  ZINC000859496582    0.0800
     48 H48        -7.9892    3.8023   50.8529 H       1  ZINC000859496582    0.0700
     49 H49        -6.3284    3.4209   51.3671 H       1  ZINC000859496582    0.0700
     50 H50        -9.8924    2.7254   51.8974 H       1  ZINC000859496582    0.1300
     51 H51       -10.7799    1.6302   53.9129 H       1  ZINC000859496582    0.1300
     52 H52       -10.1345   -0.5634   58.0713 H       1  ZINC000859496582    0.1100
     53 H53       -10.9525    0.9556   58.5198 H       1  ZINC000859496582    0.0800
@<TRIPOS>BOND
     1     1     2    1
     2     1    28    1
     3     1    29    1
     4     1    30    1
     5     2     3    1
     6     3     4    2
     7     3     5    1
     8     5     6    1
     9     5    31    1
    10     5    32    1
    11     6     7    1
    12     6    33    1
    13     6    34    1
    14     7     8    1
    15     7    35    1
    16     7    36    1
    17     8     9    1
    18     8    37    1
    19     8    38    1
    20     9    10    1
    21    10    11    2
    22    10    12    1
    23    12    13    1
    24    12    27    1
    25    12    14    1
    26    14    15    1
    27    14    39    1
    28    14    40    1
    29    15    16    1
    30    15    41    1
    31    15    42    1
    32    16    17    1
    33    16    43    1
    34    16    44    1
    35    17    18   am
    36    17    27    1
    37    18    19    2
    38    18    20    1
    39    20    26   ar
    40    20    21   ar
    41    21    22   ar
    42    21    45    1
    43    22    23   ar
    44    22    46    1
    45    23    24    1
    46    23    25   ar
    47    24    47    1
    48    24    48    1
    49    24    49    1
    50    25    26   ar
    51    25    50    1
    52    26    51    1
    53    27    52    1
    54    27    53    1
@<TRIPOS>SUBSTRUCTURE
     1 ZINC000859496582        1 TEMP              0 ****  ****    0 ROOT


##########                                Name:    ZINC000434204837
##########                DOCK_Rotatable_Bonds:                   7
##########                         Heavy_Atoms:                  29
##########                    Molecular_Weight:             406.511
##########                DOCK_Rotatable_Bonds:                   7
##########                       Formal_Charge:          -0.0200002
##########                     HBond_Acceptors:                   8
##########                        HBond_Donors:                   0
##########                         Heavy_Atoms:                  29
##########                          Grid_Score:          -32.703201
##########                     Grid_vdw_energy:          -33.021973
##########                      Grid_es_energy:            0.318773
##########           Internal_energy_repulsive:           14.406597

@<TRIPOS>MOLECULE
ZINC000434204837
 51 54 1 0 0
SMALL
USER_CHARGES


@<TRIPOS>ATOM
      1 C1        -12.5878   -2.7443   56.8761 C.3     1  ZINC000434204837   -0.1300
      2 C2        -11.4779   -1.8043   57.2710 C.ar    1  ZINC000434204837   -0.0700
      3 C3        -11.0370   -1.7672   58.5803 C.ar    1  ZINC000434204837   -0.1200
      4 C4        -10.0188   -0.9048   58.9426 C.ar    1  ZINC000434204837   -0.1100
      5 C5         -9.4417   -0.0802   57.9954 C.ar    1  ZINC000434204837   -0.1300
      6 C6         -9.8822   -0.1181   56.6855 C.ar    1  ZINC000434204837   -0.0900
      7 C7        -10.8971   -0.9832   56.3223 C.ar    1  ZINC000434204837   -0.1000
      8 C8        -11.3772   -1.0244   54.8945 C.3     1  ZINC000434204837    0.0100
      9 C9        -10.2398   -0.6703   53.9716 C.2     1  ZINC000434204837    0.2000
     10 N10        -9.9144    0.5309   53.5583 N.2     1  ZINC000434204837   -0.4600
     11 C11        -8.8458    0.3619   52.7593 C.2     1  ZINC000434204837    0.1700
     12 C12        -8.0938    1.4478   52.0340 C.3     1  ZINC000434204837   -0.0300
     13 S13        -6.7560    2.0620   53.0873 S.3     1  ZINC000434204837    0.0900
     14 C14        -6.0507    3.2683   52.0139 C.2     1  ZINC000434204837    0.2100
     15 N15        -6.4466    3.5555   50.7926 N.2     1  ZINC000434204837   -0.3300
     16 N16        -5.7160    4.4839   50.2894 N.2     1  ZINC000434204837   -0.0200
     17 N17        -4.8148    4.8539   51.1334 N.2     1  ZINC000434204837   -0.0700
     18 N18        -5.0002    4.0806   52.2927 N.pl3   1  ZINC000434204837   -0.3100
     19 C19        -4.2546    4.1319   53.4791 C.ar    1  ZINC000434204837    0.1100
     20 C20        -2.9635    3.6225   53.5118 C.ar    1  ZINC000434204837   -0.1100
     21 C21        -2.2313    3.6749   54.6819 C.ar    1  ZINC000434204837   -0.0900
     22 C22        -2.7833    4.2335   55.8200 C.ar    1  ZINC000434204837   -0.0600
     23 C23        -1.9817    4.2891   57.0950 C.3     1  ZINC000434204837   -0.0600
     24 C24        -1.6554    2.8668   57.5547 C.3     1  ZINC000434204837   -0.1500
     25 C25        -0.6811    5.0558   56.8467 C.3     1  ZINC000434204837   -0.1500
     26 C26        -4.0690    4.7417   55.7905 C.ar    1  ZINC000434204837   -0.1000
     27 C27        -4.8039    4.6972   54.6219 C.ar    1  ZINC000434204837   -0.0900
     28 N28        -8.5808   -0.9099   52.7280 N.2     1  ZINC000434204837   -0.3600
     29 O29        -9.3664   -1.5198   53.4223 O.3     1  ZINC000434204837    0.0900
     30 H30       -12.1628   -3.7011   56.5728 H       1  ZINC000434204837    0.0800
     31 H31       -13.2549   -2.8957   57.7246 H       1  ZINC000434204837    0.0700
     32 H32       -13.1482   -2.3159   56.0451 H       1  ZINC000434204837    0.0700
     33 H33       -11.4880   -2.4115   59.3205 H       1  ZINC000434204837    0.1300
     34 H34        -9.6748   -0.8753   59.9660 H       1  ZINC000434204837    0.1200
     35 H35        -8.6468    0.5939   58.2786 H       1  ZINC000434204837    0.1300
     36 H36        -9.4314    0.5265   55.9454 H       1  ZINC000434204837    0.1300
     37 H37       -11.7364   -2.0267   54.6607 H       1  ZINC000434204837    0.1200
     38 H38       -12.1882   -0.3081   54.7630 H       1  ZINC000434204837    0.1200
     39 H39        -7.6745    1.0457   51.1117 H       1  ZINC000434204837    0.1300
     40 H40        -8.7745    2.2655   51.7975 H       1  ZINC000434204837    0.1400
     41 H41        -2.5322    3.1855   52.6234 H       1  ZINC000434204837    0.1400
     42 H42        -1.2270    3.2789   54.7079 H       1  ZINC000434204837    0.1400
     43 H43        -2.5609    4.7965   57.8664 H       1  ZINC000434204837    0.0800
     44 H44        -1.0762    2.3594   56.7832 H       1  ZINC000434204837    0.0600
     45 H45        -1.0757    2.9070   58.4769 H       1  ZINC000434204837    0.0600
     46 H46        -2.5821    2.3206   57.7316 H       1  ZINC000434204837    0.0600
     47 H47        -0.9135    6.0691   56.5191 H       1  ZINC000434204837    0.0600
     48 H48        -0.1014    5.0960   57.7688 H       1  ZINC000434204837    0.0600
     49 H49        -0.1019    4.5484   56.0752 H       1  ZINC000434204837    0.0600
     50 H50        -4.4975    5.1771   56.6812 H       1  ZINC000434204837    0.1400
     51 H51        -5.8080    5.0943   54.5995 H       1  ZINC000434204837    0.1400
@<TRIPOS>BOND
     1     1     2    1
     2     1    30    1
     3     1    31    1
     4     1    32    1
     5     2     7   ar
     6     2     3   ar
     7     3     4   ar
     8     3    33    1
     9     4     5   ar
    10     4    34    1
    11     5     6   ar
    12     5    35    1
    13     6     7   ar
    14     6    36    1
    15     7     8    1
    16     8     9    1
    17     8    37    1
    18     8    38    1
    19     9    29    1
    20     9    10    2
    21    10    11    1
    22    11    12    1
    23    11    28    2
    24    12    13    1
    25    12    39    1
    26    12    40    1
    27    13    14    1
    28    14    18    1
    29    14    15    2
    30    15    16    1
    31    16    17    2
    32    17    18    1
    33    18    19    1
    34    19    27   ar
    35    19    20   ar
    36    20    21   ar
    37    20    41    1
    38    21    22   ar
    39    21    42    1
    40    22    23    1
    41    22    26   ar
    42    23    24    1
    43    23    25    1
    44    23    43    1
    45    24    44    1
    46    24    45    1
    47    24    46    1
    48    25    47    1
    49    25    48    1
    50    25    49    1
    51    26    27   ar
    52    26    50    1
    53    27    51    1
    54    28    29    1
@<TRIPOS>SUBSTRUCTURE
     1 ZINC000434204837        1 TEMP              0 ****  ****    0 ROOT


##########                                Name:    ZINC000790205345
##########                DOCK_Rotatable_Bonds:                   7
##########                         Heavy_Atoms:                  28
##########                    Molecular_Weight:             382.459
##########                DOCK_Rotatable_Bonds:                   7
##########                       Formal_Charge:          -0.0299997
##########                     HBond_Acceptors:                   6
##########                        HBond_Donors:                   0
##########                         Heavy_Atoms:                  28
##########                          Grid_Score:          -32.649460
##########                     Grid_vdw_energy:          -32.057514
##########                      Grid_es_energy:           -0.591946
##########           Internal_energy_repulsive:           25.677614

@<TRIPOS>MOLECULE
ZINC000790205345
 54 56 1 0 0
SMALL
USER_CHARGES


@<TRIPOS>ATOM
      1 C1         -8.7077   -0.8855   52.4418 C.3     1  ZINC000790205345   -0.1100
      2 C2         -8.8474   -0.1989   53.7760 C.ar    1  ZINC000790205345   -0.1300
      3 C3         -7.7722    0.4797   54.3187 C.ar    1  ZINC000790205345   -0.0800
      4 C4         -7.8977    1.1105   55.5415 C.ar    1  ZINC000790205345   -0.2100
      5 C5         -9.1040    1.0623   56.2248 C.ar    1  ZINC000790205345    0.1300
      6 O6         -9.2303    1.6823   57.4275 O.3     1  ZINC000790205345   -0.2900
      7 C7         -8.1753    1.4877   58.3716 C.3     1  ZINC000790205345    0.0400
      8 C8         -8.7199    1.6291   59.7696 C.2     1  ZINC000790205345    0.5200
      9 O9         -9.0571    2.7187   60.1818 O.2     1  ZINC000790205345   -0.5100
     10 N10        -8.8322    0.5446   60.5620 N.am    1  ZINC000790205345   -0.6100
     11 C11        -8.4231   -0.7713   60.0648 C.3     1  ZINC000790205345    0.0700
     12 C12        -9.3632    0.6818   61.9204 C.3     1  ZINC000790205345    0.1800
     13 H13        -9.1235    1.6728   62.3059 H       1  ZINC000790205345    0.1200
     14 C14        -8.7355   -0.3822   62.8232 C.3     1  ZINC000790205345   -0.1600
     15 C15       -10.8591    0.5007   61.8957 C.ar    1  ZINC000790205345   -0.0700
     16 C16       -11.6576    1.2332   62.7544 C.ar    1  ZINC000790205345   -0.1300
     17 C17       -13.0308    1.0695   62.7352 C.ar    1  ZINC000790205345   -0.0900
     18 C18       -13.6085    0.1738   61.8573 C.ar    1  ZINC000790205345   -0.1500
     19 C19       -12.8092   -0.5632   60.9931 C.ar    1  ZINC000790205345    0.1800
     20 N20       -13.3918   -1.4716   60.1020 N.am    1  ZINC000790205345   -0.5700
     21 C21       -13.1189   -1.5487   58.6587 C.3     1  ZINC000790205345    0.0600
     22 C22       -14.0145   -2.7063   58.1771 C.3     1  ZINC000790205345    0.0400
     23 O23       -14.6912   -3.1556   59.3868 O.3     1  ZINC000790205345   -0.3200
     24 C24       -14.2849   -2.4169   60.4255 C.2     1  ZINC000790205345    0.6400
     25 O25       -14.6944   -2.5826   61.5576 O.2     1  ZINC000790205345   -0.5000
     26 C26       -11.4313   -0.3928   61.0113 C.ar    1  ZINC000790205345   -0.1400
     27 C27       -10.1817    0.3806   55.6779 C.ar    1  ZINC000790205345   -0.1500
     28 C28       -10.0526   -0.2438   54.4527 C.ar    1  ZINC000790205345   -0.0500
     29 C29       -11.2227   -0.9841   53.8578 C.3     1  ZINC000790205345   -0.1200
     30 H30        -8.9726   -0.1897   51.6456 H       1  ZINC000790205345    0.0700
     31 H31        -7.6772   -1.2147   52.3087 H       1  ZINC000790205345    0.0600
     32 H32        -9.3724   -1.7486   52.4061 H       1  ZINC000790205345    0.0700
     33 H33        -6.8331    0.5166   53.7866 H       1  ZINC000790205345    0.1300
     34 H34        -7.0574    1.6401   55.9653 H       1  ZINC000790205345    0.1300
     35 H35        -7.7538    0.4904   58.2450 H       1  ZINC000790205345    0.1000
     36 H36        -7.3982    2.2341   58.2072 H       1  ZINC000790205345    0.0900
     37 H37        -7.3495   -0.8955   60.2060 H       1  ZINC000790205345    0.0600
     38 H38        -8.9542   -1.5485   60.6145 H       1  ZINC000790205345    0.0800
     39 H39        -8.6614   -0.8491   59.0041 H       1  ZINC000790205345    0.0700
     40 H40        -8.9752   -1.3731   62.4377 H       1  ZINC000790205345    0.0600
     41 H41        -7.6536   -0.2512   62.8412 H       1  ZINC000790205345    0.0700
     42 H42        -9.1306   -0.2801   63.8340 H       1  ZINC000790205345    0.0800
     43 H43       -11.2081    1.9345   63.4419 H       1  ZINC000790205345    0.1300
     44 H44       -13.6518    1.6427   63.4076 H       1  ZINC000790205345    0.1300
     45 H45       -14.6809    0.0462   61.8430 H       1  ZINC000790205345    0.1300
     46 H46       -13.3987   -0.6176   58.1659 H       1  ZINC000790205345    0.1000
     47 H47       -12.0683   -1.7773   58.4794 H       1  ZINC000790205345    0.1000
     48 H48       -14.7385   -2.3500   57.4443 H       1  ZINC000790205345    0.1100
     49 H49       -13.4085   -3.5094   57.7577 H       1  ZINC000790205345    0.1100
     50 H50       -10.8071   -0.9642   60.3403 H       1  ZINC000790205345    0.1600
     51 H51       -11.1218    0.3414   56.2080 H       1  ZINC000790205345    0.1300
     52 H52       -11.8101   -0.3016   53.2435 H       1  ZINC000790205345    0.0700
     53 H53       -10.8577   -1.8053   53.2411 H       1  ZINC000790205345    0.0700
     54 H54       -11.8469   -1.3806   54.6587 H       1  ZINC000790205345    0.0700
@<TRIPOS>BOND
     1     1     2    1
     2     1    30    1
     3     1    31    1
     4     1    32    1
     5     2    28   ar
     6     2     3   ar
     7     3     4   ar
     8     3    33    1
     9     4     5   ar
    10     4    34    1
    11     5     6    1
    12     5    27   ar
    13     6     7    1
    14     7     8    1
    15     7    35    1
    16     7    36    1
    17     8     9    2
    18     8    10   am
    19    10    11    1
    20    10    12    1
    21    11    37    1
    22    11    38    1
    23    11    39    1
    24    12    13    1
    25    12    14    1
    26    12    15    1
    27    14    40    1
    28    14    41    1
    29    14    42    1
    30    15    26   ar
    31    15    16   ar
    32    16    17   ar
    33    16    43    1
    34    17    18   ar
    35    17    44    1
    36    18    19   ar
    37    18    45    1
    38    19    20    1
    39    19    26   ar
    40    20    24   am
    41    20    21    1
    42    21    22    1
    43    21    46    1
    44    21    47    1
    45    22    23    1
    46    22    48    1
    47    22    49    1
    48    23    24    1
    49    24    25    2
    50    26    50    1
    51    27    28   ar
    52    27    51    1
    53    28    29    1
    54    29    52    1
    55    29    53    1
    56    29    54    1
@<TRIPOS>SUBSTRUCTURE
     1 ZINC000790205345        1 TEMP              0 ****  ****    0 ROOT


##########                                Name:    ZINC000745364361
##########                DOCK_Rotatable_Bonds:                   8
##########                         Heavy_Atoms:                  29
##########                    Molecular_Weight:             398.434
##########                DOCK_Rotatable_Bonds:                   8
##########                       Formal_Charge:          0.00999923
##########                     HBond_Acceptors:                   7
##########                        HBond_Donors:                   1
##########                         Heavy_Atoms:                  29
##########                          Grid_Score:          -32.647053
##########                     Grid_vdw_energy:          -31.244503
##########                      Grid_es_energy:           -1.402549
##########           Internal_energy_repulsive:           12.006197

@<TRIPOS>MOLECULE
ZINC000745364361
 52 54 1 0 0
SMALL
USER_CHARGES


@<TRIPOS>ATOM
      1 C1         -7.7224    1.8769   52.1492 C.3     1  ZINC000745364361   -0.1700
      2 C2         -8.7507    0.7944   52.4834 C.3     1  ZINC000745364361    0.0700
      3 H3         -8.4917   -0.1264   51.9610 H       1  ZINC000745364361    0.1100
      4 O4        -10.0697    1.2339   52.0645 O.3     1  ZINC000745364361   -0.3200
      5 C5        -11.0175    0.2907   51.9473 C.2     1  ZINC000745364361    0.4700
      6 O6        -10.7119   -0.8781   51.9634 O.2     1  ZINC000745364361   -0.4900
      7 C7        -12.4628    0.6897   51.7959 C.3     1  ZINC000745364361   -0.0400
      8 H8        -13.1022   -0.1469   52.0774 H       1  ZINC000745364361    0.1200
      9 C9        -12.7593    1.8858   52.7027 C.3     1  ZINC000745364361   -0.1400
     10 C10       -12.7320    1.0676   50.3620 C.ar    1  ZINC000745364361   -0.0500
     11 C11       -12.3159    2.2948   49.8811 C.ar    1  ZINC000745364361   -0.1000
     12 C12       -12.5623    2.6428   48.5659 C.ar    1  ZINC000745364361   -0.0900
     13 C13       -13.2247    1.7638   47.7305 C.ar    1  ZINC000745364361   -0.1500
     14 C14       -13.6416    0.5337   48.2111 C.ar    1  ZINC000745364361    0.1000
     15 F15       -14.2895   -0.3264   47.3953 F       1  ZINC000745364361   -0.1400
     16 C16       -13.3899    0.1844   49.5267 C.ar    1  ZINC000745364361   -0.1400
     17 C17        -8.7527    0.5453   53.9697 C.2     1  ZINC000745364361    0.5200
     18 O18        -8.5802   -0.5768   54.3968 O.2     1  ZINC000745364361   -0.5000
     19 N19        -8.9462    1.5693   54.8243 N.am    1  ZINC000745364361   -0.6700
     20 C20        -8.9481    1.3378   56.2058 C.ar    1  ZINC000745364361    0.1200
     21 C21        -7.9011    1.8049   56.9895 C.ar    1  ZINC000745364361   -0.1100
     22 C22        -7.9030    1.5767   58.3509 C.ar    1  ZINC000745364361   -0.1400
     23 C23        -8.9519    0.8804   58.9369 C.ar    1  ZINC000745364361    0.1500
     24 N24        -8.9536    0.6485   60.3183 N.am    1  ZINC000745364361   -0.5600
     25 C25        -9.0985    1.6979   61.3340 C.3     1  ZINC000745364361    0.0900
     26 C26        -9.4777    0.9605   62.6373 C.3     1  ZINC000745364361   -0.1300
     27 C27        -8.8786   -0.4435   62.3910 C.3     1  ZINC000745364361   -0.1500
     28 C28        -8.8284   -0.5645   60.8839 C.2     1  ZINC000745364361    0.5200
     29 O29        -8.6883   -1.6039   60.2746 O.2     1  ZINC000745364361   -0.5100
     30 C30        -9.9996    0.4146   58.1534 C.ar    1  ZINC000745364361   -0.1400
     31 C31        -9.9996    0.6461   56.7924 C.ar    1  ZINC000745364361   -0.0900
     32 H32        -7.7209    2.0571   51.0742 H       1  ZINC000745364361    0.0800
     33 H33        -7.9814    2.7978   52.6715 H       1  ZINC000745364361    0.0800
     34 H34        -6.7323    1.5470   52.4635 H       1  ZINC000745364361    0.0800
     35 H35       -12.1200    2.7225   52.4212 H       1  ZINC000745364361    0.0700
     36 H36       -13.8047    2.1745   52.5932 H       1  ZINC000745364361    0.0800
     37 H37       -12.5646    1.6126   53.7398 H       1  ZINC000745364361    0.0800
     38 H38       -11.7985    2.9826   50.5334 H       1  ZINC000745364361    0.1300
     39 H39       -12.2370    3.6021   48.1913 H       1  ZINC000745364361    0.1400
     40 H40       -13.4176    2.0361   46.7034 H       1  ZINC000745364361    0.1400
     41 H41       -13.7142   -0.7748   49.9025 H       1  ZINC000745364361    0.1400
     42 H42        -9.0842    2.4666   54.4828 H       1  ZINC000745364361    0.4100
     43 H43        -7.0853    2.3464   56.5338 H       1  ZINC000745364361    0.1300
     44 H44        -7.0884    1.9393   58.9604 H       1  ZINC000745364361    0.1600
     45 H45        -8.1564    2.2310   61.4627 H       1  ZINC000745364361    0.0800
     46 H46        -9.8894    2.3918   61.0493 H       1  ZINC000745364361    0.0900
     47 H47        -9.0157    1.4355   63.5028 H       1  ZINC000745364361    0.1000
     48 H48       -10.5601    0.9077   62.7547 H       1  ZINC000745364361    0.0900
     49 H49        -7.8774   -0.5111   62.8166 H       1  ZINC000745364361    0.1100
     50 H50        -9.5255   -1.2134   62.8114 H       1  ZINC000745364361    0.1100
     51 H51       -10.8155   -0.1267   58.6090 H       1  ZINC000745364361    0.1300
     52 H52       -10.8144    0.2837   56.1831 H       1  ZINC000745364361    0.1400
@<TRIPOS>BOND
     1     1     2    1
     2     1    32    1
     3     1    33    1
     4     1    34    1
     5     2     3    1
     6     2     4    1
     7     2    17    1
     8     4     5    1
     9     5     6    2
    10     5     7    1
    11     7     8    1
    12     7     9    1
    13     7    10    1
    14     9    35    1
    15     9    36    1
    16     9    37    1
    17    10    16   ar
    18    10    11   ar
    19    11    12   ar
    20    11    38    1
    21    12    13   ar
    22    12    39    1
    23    13    14   ar
    24    13    40    1
    25    14    15    1
    26    14    16   ar
    27    16    41    1
    28    17    18    2
    29    17    19   am
    30    19    20    1
    31    19    42    1
    32    20    31   ar
    33    20    21   ar
    34    21    22   ar
    35    21    43    1
    36    22    23   ar
    37    22    44    1
    38    23    24    1
    39    23    30   ar
    40    24    28   am
    41    24    25    1
    42    25    26    1
    43    25    45    1
    44    25    46    1
    45    26    27    1
    46    26    47    1
    47    26    48    1
    48    27    28    1
    49    27    49    1
    50    27    50    1
    51    28    29    2
    52    30    31   ar
    53    30    51    1
    54    31    52    1
@<TRIPOS>SUBSTRUCTURE
     1 ZINC000745364361        1 TEMP              0 ****  ****    0 ROOT


##########                                Name:    ZINC000523153175
##########                DOCK_Rotatable_Bonds:                   9
##########                         Heavy_Atoms:                  30
##########                    Molecular_Weight:             413.603
##########                DOCK_Rotatable_Bonds:                   9
##########                       Formal_Charge:           0.0499987
##########                     HBond_Acceptors:                   5
##########                        HBond_Donors:                   1
##########                         Heavy_Atoms:                  30
##########                          Grid_Score:          -32.629459
##########                     Grid_vdw_energy:          -31.773390
##########                      Grid_es_energy:           -0.856070
##########           Internal_energy_repulsive:           38.721317

@<TRIPOS>MOLECULE
ZINC000523153175
 69 71 1 0 0
SMALL
USER_CHARGES


@<TRIPOS>ATOM
      1 C1        -13.4136    1.8857   49.1693 C.3     1  ZINC000523153175   -0.1500
      2 C2        -13.7210    1.4671   50.6085 C.3     1  ZINC000523153175   -0.0600
      3 C3        -14.6079    0.2204   50.5986 C.3     1  ZINC000523153175   -0.1400
      4 C4        -12.4330    1.1617   51.3288 C.ar    1  ZINC000523153175   -0.0800
      5 C5        -11.9154   -0.1199   51.3058 C.ar    1  ZINC000523153175   -0.1100
      6 C6        -10.7339   -0.4001   51.9665 C.ar    1  ZINC000523153175   -0.1100
      7 C7        -10.0699    0.6015   52.6499 C.ar    1  ZINC000523153175   -0.0800
      8 C8         -8.7821    0.2959   53.3706 C.3     1  ZINC000523153175   -0.0300
      9 H9         -8.5262   -0.7539   53.2278 H       1  ZINC000523153175    0.0800
     10 C10        -7.6626    1.1747   52.8091 C.3     1  ZINC000523153175   -0.1500
     11 C11        -8.9537    0.5806   54.8640 C.3     1  ZINC000523153175   -0.1300
     12 C12        -9.7178   -0.5485   55.5060 C.2     1  ZINC000523153175    0.5200
     13 O13        -9.8941   -1.5836   54.8992 O.2     1  ZINC000523153175   -0.5300
     14 N14       -10.2053   -0.4081   56.7547 N.am    1  ZINC000523153175   -0.6200
     15 C15       -10.9470   -1.5005   57.4028 C.3     1  ZINC000523153175    0.1100
     16 C16       -10.3335   -1.7530   58.7840 C.3     1  ZINC000523153175    0.0400
     17 N17       -10.2982   -0.4930   59.5385 N.3     1  ZINC000523153175   -0.5100
     18 C18        -9.8772   -0.7224   60.9271 C.3     1  ZINC000523153175    0.0600
     19 H19       -10.2451   -1.6920   61.2628 H       1  ZINC000523153175    0.1100
     20 C20        -8.3495   -0.7012   61.0069 C.3     1  ZINC000523153175   -0.1800
     21 C21       -10.4415    0.3618   61.8087 C.2     1  ZINC000523153175    0.5200
     22 O22       -11.0523    1.2868   61.3167 O.2     1  ZINC000523153175   -0.5200
     23 N23       -10.2673    0.3033   63.1439 N.am    1  ZINC000523153175   -0.7200
     24 C24       -10.8174    1.3564   64.0010 C.3     1  ZINC000523153175    0.1400
     25 C25       -10.5112    1.0469   65.4810 C.3     1  ZINC000523153175   -0.1300
     26 C26        -9.2224    1.8526   65.7789 C.3     1  ZINC000523153175   -0.1300
     27 C27        -9.4462    3.1620   64.9825 C.3     1  ZINC000523153175   -0.1300
     28 C28       -10.1401    2.7014   63.6841 C.3     1  ZINC000523153175   -0.1300
     29 C29        -9.4331    0.4967   58.8827 C.3     1  ZINC000523153175    0.0400
     30 C30       -10.0044    0.8391   57.5078 C.3     1  ZINC000523153175    0.1200
     31 C31       -10.5868    1.8833   52.6717 C.ar    1  ZINC000523153175   -0.1100
     32 C32       -11.7663    2.1643   52.0077 C.ar    1  ZINC000523153175   -0.1200
     33 H33       -14.3452    2.1066   48.6482 H       1  ZINC000523153175    0.0600
     34 H34       -12.7817    2.7738   49.1763 H       1  ZINC000523153175    0.0600
     35 H35       -12.8948    1.0748   48.6580 H       1  ZINC000523153175    0.0600
     36 H36       -14.2398    2.2780   51.1197 H       1  ZINC000523153175    0.0800
     37 H37       -14.0891   -0.5905   50.0873 H       1  ZINC000523153175    0.0600
     38 H38       -14.8268   -0.0779   51.6239 H       1  ZINC000523153175    0.0600
     39 H39       -15.5395    0.4413   50.0776 H       1  ZINC000523153175    0.0600
     40 H40       -12.4341   -0.9024   50.7719 H       1  ZINC000523153175    0.1200
     41 H41       -10.3298   -1.4015   51.9491 H       1  ZINC000523153175    0.1200
     42 H42        -6.7312    0.9537   53.3304 H       1  ZINC000523153175    0.0800
     43 H43        -7.5404    0.9719   51.7452 H       1  ZINC000523153175    0.0600
     44 H44        -7.9186    2.2245   52.9519 H       1  ZINC000523153175    0.0500
     45 H45        -7.9732    0.6682   55.3322 H       1  ZINC000523153175    0.0900
     46 H46        -9.5037    1.5124   54.9955 H       1  ZINC000523153175    0.0900
     47 H47       -11.9937   -1.2171   57.5132 H       1  ZINC000523153175    0.0800
     48 H48       -10.8712   -2.4039   56.7977 H       1  ZINC000523153175    0.0900
     49 H49       -10.9381   -2.4827   59.3228 H       1  ZINC000523153175    0.0900
     50 H50        -9.3195   -2.1355   58.6674 H       1  ZINC000523153175    0.0400
     51 H51        -7.9815    0.2684   60.6712 H       1  ZINC000523153175    0.0700
     52 H52        -8.0371   -0.8714   62.0372 H       1  ZINC000523153175    0.0700
     53 H53        -7.9413   -1.4854   60.3693 H       1  ZINC000523153175    0.0700
     54 H54        -9.7777   -0.4359   63.5372 H       1  ZINC000523153175    0.4000
     55 H55       -11.8940    1.4359   63.8503 H       1  ZINC000523153175    0.0900
     56 H56       -11.3284    1.3848   66.1184 H       1  ZINC000523153175    0.0700
     57 H57       -10.3348   -0.0199   65.6190 H       1  ZINC000523153175    0.0700
     58 H58        -9.1340    2.0594   66.8454 H       1  ZINC000523153175    0.0700
     59 H59        -8.3427    1.3232   65.4128 H       1  ZINC000523153175    0.0700
     60 H60       -10.0912    3.8417   65.5394 H       1  ZINC000523153175    0.0700
     61 H61        -8.4924    3.6390   64.7567 H       1  ZINC000523153175    0.0700
     62 H62        -9.4022    2.5705   62.8926 H       1  ZINC000523153175    0.0700
     63 H63       -10.8882    3.4336   63.3804 H       1  ZINC000523153175    0.0800
     64 H64        -9.3847    1.3985   59.4930 H       1  ZINC000523153175    0.1000
     65 H65        -8.4316    0.0828   58.7647 H       1  ZINC000523153175    0.0400
     66 H66        -9.3077    1.4840   56.9721 H       1  ZINC000523153175    0.1000
     67 H67       -10.9616    1.3472   57.6252 H       1  ZINC000523153175    0.0800
     68 H68       -10.0678    2.6658   53.2053 H       1  ZINC000523153175    0.1200
     69 H69       -12.1701    3.1658   52.0248 H       1  ZINC000523153175    0.1200
@<TRIPOS>BOND
     1     1     2    1
     2     1    33    1
     3     1    34    1
     4     1    35    1
     5     2     3    1
     6     2     4    1
     7     2    36    1
     8     3    37    1
     9     3    38    1
    10     3    39    1
    11     4    32   ar
    12     4     5   ar
    13     5     6   ar
    14     5    40    1
    15     6     7   ar
    16     6    41    1
    17     7     8    1
    18     7    31   ar
    19     8     9    1
    20     8    10    1
    21     8    11    1
    22    10    42    1
    23    10    43    1
    24    10    44    1
    25    11    12    1
    26    11    45    1
    27    11    46    1
    28    12    13    2
    29    12    14   am
    30    14    30    1
    31    14    15    1
    32    15    16    1
    33    15    47    1
    34    15    48    1
    35    16    17    1
    36    16    49    1
    37    16    50    1
    38    17    18    1
    39    17    29    1
    40    18    19    1
    41    18    20    1
    42    18    21    1
    43    20    51    1
    44    20    52    1
    45    20    53    1
    46    21    22    2
    47    21    23   am
    48    23    24    1
    49    23    54    1
    50    24    28    1
    51    24    25    1
    52    24    55    1
    53    25    26    1
    54    25    56    1
    55    25    57    1
    56    26    27    1
    57    26    58    1
    58    26    59    1
    59    27    28    1
    60    27    60    1
    61    27    61    1
    62    28    62    1
    63    28    63    1
    64    29    30    1
    65    29    64    1
    66    29    65    1
    67    30    66    1
    68    30    67    1
    69    31    32   ar
    70    31    68    1
    71    32    69    1
@<TRIPOS>SUBSTRUCTURE
     1 ZINC000523153175        1 TEMP              0 ****  ****    0 ROOT


##########                                Name:    ZINC000914736341
##########                DOCK_Rotatable_Bonds:                   7
##########                         Heavy_Atoms:                  27
##########                    Molecular_Weight:             384.905
##########                DOCK_Rotatable_Bonds:                   7
##########                       Formal_Charge:                0.02
##########                     HBond_Acceptors:                   5
##########                        HBond_Donors:                   1
##########                         Heavy_Atoms:                  27
##########                          Grid_Score:          -32.614445
##########                     Grid_vdw_energy:          -31.157131
##########                      Grid_es_energy:           -1.457315
##########           Internal_energy_repulsive:           22.631247

@<TRIPOS>MOLECULE
ZINC000914736341
 52 54 1 0 0
SMALL
USER_CHARGES


@<TRIPOS>ATOM
      1 C1        -11.7203    0.5465   61.5238 C.3     1  ZINC000914736341   -0.1400
      2 C2        -10.2390    0.1638   61.5015 C.3     1  ZINC000914736341   -0.0300
      3 C3        -10.0920   -1.2774   61.0093 C.3     1  ZINC000914736341   -0.1400
      4 C4         -9.4836    1.1038   60.5600 C.3     1  ZINC000914736341    0.1300
      5 N5         -9.9562    0.9043   59.1878 N.am    1  ZINC000914736341   -0.7200
      6 C6         -9.1212    1.1121   58.1505 C.2     1  ZINC000914736341    0.5300
      7 O7         -7.9789    1.4658   58.3530 O.2     1  ZINC000914736341   -0.5300
      8 C8         -9.6069    0.9051   56.7390 C.3     1  ZINC000914736341   -0.1200
      9 H9        -10.3660    1.6424   56.4777 H       1  ZINC000914736341    0.1200
     10 C10       -10.1412   -0.5326   56.5429 C.3     1  ZINC000914736341   -0.1400
     11 C11        -9.7100   -0.9006   55.1403 C.2     1  ZINC000914736341    0.5200
     12 O12       -10.1600   -1.8237   54.4950 O.2     1  ZINC000914736341   -0.5200
     13 N13        -8.7561   -0.0553   54.7132 N.am    1  ZINC000914736341   -0.6100
     14 C14        -8.1229   -0.1222   53.3938 C.3     1  ZINC000914736341    0.1600
     15 C15        -8.0433    1.2623   52.8040 C.ar    1  ZINC000914736341   -0.1000
     16 C16        -6.8258    1.9114   52.7262 C.ar    1  ZINC000914736341   -0.0800
     17 C17        -6.7526    3.1816   52.1852 C.ar    1  ZINC000914736341   -0.1100
     18 C18        -7.8970    3.8032   51.7222 C.ar    1  ZINC000914736341   -0.1000
     19 C19        -9.1155    3.1550   51.7995 C.ar    1  ZINC000914736341   -0.1100
     20 C20        -9.1884    1.8816   52.3351 C.ar    1  ZINC000914736341   -0.0300
     21 Cl21      -10.7183    1.0669   52.4324 Cl      1  ZINC000914736341   -0.0600
     22 C22        -8.4307    0.9441   55.7383 C.3     1  ZINC000914736341    0.1000
     23 C23        -9.6691    0.2805   62.8916 C.ar    1  ZINC000914736341   -0.0700
     24 C24       -10.4756    0.6886   63.9373 C.ar    1  ZINC000914736341   -0.1200
     25 C25        -9.9527    0.7957   65.2125 C.ar    1  ZINC000914736341   -0.1200
     26 C26        -8.6233    0.4941   65.4419 C.ar    1  ZINC000914736341   -0.1200
     27 C27        -7.8170    0.0850   64.3964 C.ar    1  ZINC000914736341   -0.1200
     28 C28        -8.3409   -0.0261   63.1220 C.ar    1  ZINC000914736341   -0.1100
     29 H29       -12.2585   -0.1232   62.1945 H       1  ZINC000914736341    0.0600
     30 H30       -11.8249    1.5732   61.8744 H       1  ZINC000914736341    0.0600
     31 H31       -12.1325    0.4622   60.5182 H       1  ZINC000914736341    0.0600
     32 H32       -10.5042   -1.3618   60.0038 H       1  ZINC000914736341    0.0600
     33 H33        -9.0368   -1.5500   60.9933 H       1  ZINC000914736341    0.0600
     34 H34       -10.6303   -1.9471   61.6800 H       1  ZINC000914736341    0.0600
     35 H35        -9.6609    2.1370   60.8588 H       1  ZINC000914736341    0.0700
     36 H36        -8.4162    0.8889   60.6115 H       1  ZINC000914736341    0.0700
     37 H37       -10.8702    0.6225   59.0258 H       1  ZINC000914736341    0.4000
     38 H38        -9.6919   -1.2091   57.2700 H       1  ZINC000914736341    0.1100
     39 H39       -11.2280   -0.5501   56.6249 H       1  ZINC000914736341    0.1100
     40 H40        -7.1181   -0.5330   53.4934 H       1  ZINC000914736341    0.1000
     41 H41        -8.7140   -0.7626   52.7392 H       1  ZINC000914736341    0.1000
     42 H42        -5.9314    1.4265   53.0884 H       1  ZINC000914736341    0.1400
     43 H43        -5.8008    3.6884   52.1245 H       1  ZINC000914736341    0.1300
     44 H44        -7.8394    4.7958   51.3003 H       1  ZINC000914736341    0.1300
     45 H45       -10.0096    3.6408   51.4377 H       1  ZINC000914736341    0.1400
     46 H46        -8.3498    1.9336   55.2881 H       1  ZINC000914736341    0.1000
     47 H47        -7.5000    0.6802   56.2405 H       1  ZINC000914736341    0.0900
     48 H48       -11.5142    0.9242   63.7581 H       1  ZINC000914736341    0.1300
     49 H49       -10.5828    1.1153   66.0294 H       1  ZINC000914736341    0.1200
     50 H50        -8.2146    0.5784   66.4381 H       1  ZINC000914736341    0.1200
     51 H51        -6.7783   -0.1502   64.5756 H       1  ZINC000914736341    0.1200
     52 H52        -7.7109   -0.3458   62.3051 H       1  ZINC000914736341    0.1200
@<TRIPOS>BOND
     1     1     2    1
     2     1    29    1
     3     1    30    1
     4     1    31    1
     5     2     3    1
     6     2     4    1
     7     2    23    1
     8     3    32    1
     9     3    33    1
    10     3    34    1
    11     4     5    1
    12     4    35    1
    13     4    36    1
    14     5     6   am
    15     5    37    1
    16     6     7    2
    17     6     8    1
    18     8     9    1
    19     8    22    1
    20     8    10    1
    21    10    11    1
    22    10    38    1
    23    10    39    1
    24    11    12    2
    25    11    13   am
    26    13    14    1
    27    13    22    1
    28    14    15    1
    29    14    40    1
    30    14    41    1
    31    15    20   ar
    32    15    16   ar
    33    16    17   ar
    34    16    42    1
    35    17    18   ar
    36    17    43    1
    37    18    19   ar
    38    18    44    1
    39    19    20   ar
    40    19    45    1
    41    20    21    1
    42    22    46    1
    43    22    47    1
    44    23    28   ar
    45    23    24   ar
    46    24    25   ar
    47    24    48    1
    48    25    26   ar
    49    25    49    1
    50    26    27   ar
    51    26    50    1
    52    27    28   ar
    53    27    51    1
    54    28    52    1
@<TRIPOS>SUBSTRUCTURE
     1 ZINC000914736341        1 TEMP              0 ****  ****    0 ROOT


##########                                Name:    ZINC001191196975
##########                DOCK_Rotatable_Bonds:                  14
##########                         Heavy_Atoms:                  24
##########                    Molecular_Weight:             339.438
##########                DOCK_Rotatable_Bonds:                  14
##########                       Formal_Charge:          0.00999969
##########                     HBond_Acceptors:                   8
##########                        HBond_Donors:                   4
##########                         Heavy_Atoms:                  24
##########                          Grid_Score:          -32.557755
##########                     Grid_vdw_energy:          -33.652679
##########                      Grid_es_energy:            1.094926
##########           Internal_energy_repulsive:           11.962923

@<TRIPOS>MOLECULE
ZINC001191196975
 53 53 1 0 0
SMALL
USER_CHARGES


@<TRIPOS>ATOM
      1 C1         -9.1253    3.9731   49.3941 C.2     1  ZINC001191196975   -0.1600
      2 C2         -9.4827    4.0989   50.6480 C.2     1  ZINC001191196975   -0.1800
      3 C3         -8.5117    3.7514   51.7469 C.3     1  ZINC001191196975    0.1500
      4 N4         -8.7239    2.3637   52.1655 N.am    1  ZINC001191196975   -0.7300
      5 C5         -7.6972    1.6447   52.6607 C.2     1  ZINC001191196975    0.5100
      6 O6         -6.5980    2.1470   52.7612 O.2     1  ZINC001191196975   -0.5200
      7 C7         -7.9152    0.2165   53.0896 C.3     1  ZINC001191196975    0.0300
      8 N8         -9.2709    0.0710   53.6364 N.3     1  ZINC001191196975   -0.5100
      9 C9        -10.0277   -0.9519   52.9022 C.3     1  ZINC001191196975    0.0200
     10 C10        -9.2293   -0.2348   55.0727 C.3     1  ZINC001191196975    0.0700
     11 H11        -8.7238   -1.1833   55.2535 H       1  ZINC001191196975    0.0600
     12 C12       -10.6563   -0.2398   55.6818 C.3     1  ZINC001191196975   -0.1200
     13 C13       -10.4013    0.1132   57.1623 C.3     1  ZINC001191196975    0.1000
     14 N14        -9.1038    0.8011   57.2299 N.am    1  ZINC001191196975   -0.6200
     15 C15        -8.5120    1.2532   58.3532 C.2     1  ZINC001191196975    0.5300
     16 O16        -7.4363    1.8098   58.2900 O.2     1  ZINC001191196975   -0.5400
     17 C17        -9.1869    1.0673   59.6877 C.3     1  ZINC001191196975   -0.1300
     18 C18        -8.8329   -0.3106   60.2507 C.3     1  ZINC001191196975   -0.1000
     19 C19        -9.5322   -0.5064   61.5973 C.3     1  ZINC001191196975   -0.1300
     20 C20        -8.6655    0.0822   62.7124 C.3     1  ZINC001191196975    0.1400
     21 N21        -9.3526   -0.0706   63.9972 N.am    1  ZINC001191196975   -0.7500
     22 C22        -8.6379   -0.2105   65.1312 C.2     1  ZINC001191196975    0.7000
     23 N23        -9.2701   -0.3495   66.3134 N.am    1  ZINC001191196975   -0.8700
     24 O24        -7.4228   -0.2115   65.0877 O.2     1  ZINC001191196975   -0.5900
     25 C25        -8.5558    0.9133   55.8653 C.3     1  ZINC001191196975    0.1100
     26 H26        -8.1347    3.6201   49.1478 H       1  ZINC001191196975    0.1000
     27 H27        -9.8227    4.2178   48.6067 H       1  ZINC001191196975    0.1000
     28 H28       -10.4733    4.4518   50.8945 H       1  ZINC001191196975    0.1200
     29 H29        -7.4917    3.8686   51.3809 H       1  ZINC001191196975    0.0800
     30 H30        -8.6714    4.4157   52.5962 H       1  ZINC001191196975    0.0700
     31 H31        -9.6034    1.9623   52.0862 H       1  ZINC001191196975    0.4000
     32 H32        -7.7975   -0.4431   52.2299 H       1  ZINC001191196975    0.0700
     33 H33        -7.1848   -0.0489   53.8539 H       1  ZINC001191196975    0.1100
     34 H34        -9.4608   -1.8828   52.8877 H       1  ZINC001191196975    0.0200
     35 H35       -10.9861   -1.1178   53.3942 H       1  ZINC001191196975    0.0700
     36 H36       -10.1978   -0.6141   51.8799 H       1  ZINC001191196975    0.0900
     37 H37       -11.2810    0.5167   55.2069 H       1  ZINC001191196975    0.0900
     38 H38       -11.1098   -1.2271   55.5933 H       1  ZINC001191196975    0.0800
     39 H39       -11.1895    0.7716   57.5274 H       1  ZINC001191196975    0.0700
     40 H40       -10.3697   -0.7976   57.7604 H       1  ZINC001191196975    0.0700
     41 H41        -8.8471    1.8399   60.3774 H       1  ZINC001191196975    0.0900
     42 H42       -10.2670    1.1419   59.5621 H       1  ZINC001191196975    0.0900
     43 H43        -9.1615   -1.0827   59.5550 H       1  ZINC001191196975    0.0800
     44 H44        -7.7538   -0.3807   60.3881 H       1  ZINC001191196975    0.0800
     45 H45       -10.4977   -0.0005   61.5822 H       1  ZINC001191196975    0.0700
     46 H46        -9.6825   -1.5708   61.7774 H       1  ZINC001191196975    0.0700
     47 H47        -7.7110   -0.4429   62.7462 H       1  ZINC001191196975    0.0700
     48 H48        -8.4914    1.1403   62.5171 H       1  ZINC001191196975    0.0700
     49 H49       -10.3221   -0.0710   64.0317 H       1  ZINC001191196975    0.4000
     50 H50        -8.7557   -0.4490   67.1298 H       1  ZINC001191196975    0.4000
     51 H51       -10.2395   -0.3499   66.3478 H       1  ZINC001191196975    0.4200
     52 H52        -7.4738    0.7824   55.8790 H       1  ZINC001191196975    0.0800
     53 H53        -8.8166    1.8779   55.4299 H       1  ZINC001191196975    0.0800
@<TRIPOS>BOND
     1     1     2    2
     2     1    26    1
     3     1    27    1
     4     2     3    1
     5     2    28    1
     6     3     4    1
     7     3    29    1
     8     3    30    1
     9     4     5   am
    10     4    31    1
    11     5     6    2
    12     5     7    1
    13     7     8    1
    14     7    32    1
    15     7    33    1
    16     8     9    1
    17     8    10    1
    18     9    34    1
    19     9    35    1
    20     9    36    1
    21    10    11    1
    22    10    25    1
    23    10    12    1
    24    12    13    1
    25    12    37    1
    26    12    38    1
    27    13    14    1
    28    13    39    1
    29    13    40    1
    30    14    15   am
    31    14    25    1
    32    15    16    2
    33    15    17    1
    34    17    18    1
    35    17    41    1
    36    17    42    1
    37    18    19    1
    38    18    43    1
    39    18    44    1
    40    19    20    1
    41    19    45    1
    42    19    46    1
    43    20    21    1
    44    20    47    1
    45    20    48    1
    46    21    22   am
    47    21    49    1
    48    22    23   am
    49    22    24    2
    50    23    50    1
    51    23    51    1
    52    25    52    1
    53    25    53    1
@<TRIPOS>SUBSTRUCTURE
     1 ZINC001191196975        1 TEMP              0 ****  ****    0 ROOT


##########                                Name:    ZINC000486710336
##########                DOCK_Rotatable_Bonds:                   6
##########                         Heavy_Atoms:                  31
##########                    Molecular_Weight:             420.555
##########                DOCK_Rotatable_Bonds:                   6
##########                       Formal_Charge:         1.49012e-07
##########                     HBond_Acceptors:                   6
##########                        HBond_Donors:                   1
##########                         Heavy_Atoms:                  31
##########                          Grid_Score:          -32.553474
##########                     Grid_vdw_energy:          -31.845854
##########                      Grid_es_energy:           -0.707621
##########           Internal_energy_repulsive:           52.423832

@<TRIPOS>MOLECULE
ZINC000486710336
 63 67 1 0 0
SMALL
USER_CHARGES


@<TRIPOS>ATOM
      1 C1         -9.3152   -0.3118   53.7302 C.3     1  ZINC000486710336    0.1000
      2 N2         -8.4063    0.8188   53.5259 N.pl3   1  ZINC000486710336   -0.3900
      3 N3         -8.1968    1.5018   52.3210 N.2     1  ZINC000486710336   -0.2800
      4 C4         -7.3177    2.4483   52.5297 C.2     1  ZINC000486710336    0.1000
      5 C5         -6.8067    3.4194   51.4968 C.3     1  ZINC000486710336   -0.0100
      6 C6         -7.9437    3.8281   50.5277 C.3     1  ZINC000486710336   -0.1200
      7 C7         -7.4545    5.1932   49.9833 C.3     1  ZINC000486710336   -0.1200
      8 C8         -6.7955    5.8723   51.2017 C.3     1  ZINC000486710336   -0.1200
      9 C9         -6.3836    4.7444   52.1640 C.3     1  ZINC000486710336   -0.1100
     10 C10        -6.9329    2.4065   53.8720 C.2     1  ZINC000486710336   -0.2600
     11 C11        -7.6208    1.3955   54.4723 C.2     1  ZINC000486710336    0.3000
     12 N12        -7.5295    1.0177   55.8090 N.am    1  ZINC000486710336   -0.6200
     13 C13        -8.6293    1.0249   56.5878 C.2     1  ZINC000486710336    0.5100
     14 O14        -9.6993    1.3623   56.1242 O.2     1  ZINC000486710336   -0.4800
     15 C15        -8.5318    0.6179   58.0210 C.2     1  ZINC000486710336    0.5300
     16 O16        -7.7397    1.1702   58.7561 O.2     1  ZINC000486710336   -0.5100
     17 N17        -9.3234   -0.3629   58.4985 N.am    1  ZINC000486710336   -0.5800
     18 C18       -10.3235   -1.1226   57.7268 C.3     1  ZINC000486710336    0.1000
     19 C19       -11.0022   -2.1069   58.7050 C.3     1  ZINC000486710336   -0.0600
     20 H20       -10.5280   -3.0873   58.6581 H       1  ZINC000486710336    0.1000
     21 C21       -12.4775   -2.2149   58.4167 C.ar    1  ZINC000486710336   -0.0700
     22 C22       -12.9714   -1.8268   57.1853 C.ar    1  ZINC000486710336   -0.1100
     23 C23       -14.3246   -1.9259   56.9210 C.ar    1  ZINC000486710336   -0.1200
     24 C24       -15.1838   -2.4134   57.8878 C.ar    1  ZINC000486710336   -0.1200
     25 C25       -14.6899   -2.8022   59.1189 C.ar    1  ZINC000486710336   -0.1200
     26 C26       -13.3361   -2.7073   59.3818 C.ar    1  ZINC000486710336   -0.1100
     27 C27       -10.7529   -1.4376   60.0913 C.3     1  ZINC000486710336   -0.0800
     28 H28       -10.7943   -2.1485   60.9166 H       1  ZINC000486710336    0.1100
     29 C29       -11.7901   -0.3213   60.2303 C.3     1  ZINC000486710336   -0.1100
     30 C30       -11.3884    0.6537   61.3346 C.3     1  ZINC000486710336   -0.1200
     31 C31       -10.0540    1.3037   60.9536 C.3     1  ZINC000486710336   -0.1100
     32 C32        -8.9863    0.2117   60.8865 C.3     1  ZINC000486710336   -0.1400
     33 C33        -9.3371   -0.8662   59.8745 C.3     1  ZINC000486710336    0.1400
     34 H34        -8.6006   -1.6663   59.9499 H       1  ZINC000486710336    0.0800
     35 H35       -10.2998    0.0602   54.0136 H       1  ZINC000486710336    0.0800
     36 H36        -9.3953   -0.8852   52.8067 H       1  ZINC000486710336    0.1000
     37 H37        -8.9268   -0.9516   54.5226 H       1  ZINC000486710336    0.0800
     38 H38        -5.9715    2.9855   50.9470 H       1  ZINC000486710336    0.0900
     39 H39        -8.0420    3.1030   49.7198 H       1  ZINC000486710336    0.0700
     40 H40        -8.8861    3.9413   51.0636 H       1  ZINC000486710336    0.0800
     41 H41        -6.7246    5.0471   49.1870 H       1  ZINC000486710336    0.0700
     42 H42        -8.2969    5.7854   49.6259 H       1  ZINC000486710336    0.0700
     43 H43        -5.9160    6.4335   50.8860 H       1  ZINC000486710336    0.0600
     44 H44        -7.5082    6.5374   51.6892 H       1  ZINC000486710336    0.0600
     45 H45        -6.8965    4.8623   53.1186 H       1  ZINC000486710336    0.0700
     46 H46        -5.3043    4.7583   52.3154 H       1  ZINC000486710336    0.0700
     47 H47        -6.2198    3.0619   54.3497 H       1  ZINC000486710336    0.1700
     48 H48        -6.6744    0.7491   56.1797 H       1  ZINC000486710336    0.4200
     49 H49       -11.0662   -0.4420   57.3105 H       1  ZINC000486710336    0.0900
     50 H50        -9.8325   -1.6750   56.9256 H       1  ZINC000486710336    0.0800
     51 H51       -12.3000   -1.4460   56.4300 H       1  ZINC000486710336    0.1200
     52 H52       -14.7104   -1.6221   55.9591 H       1  ZINC000486710336    0.1200
     53 H53       -16.2412   -2.4901   57.6815 H       1  ZINC000486710336    0.1200
     54 H54       -15.3613   -3.1828   59.8745 H       1  ZINC000486710336    0.1200
     55 H55       -12.9501   -3.0110   60.3436 H       1  ZINC000486710336    0.1200
     56 H56       -11.8664    0.2176   59.2859 H       1  ZINC000486710336    0.0700
     57 H57       -12.7585   -0.7590   60.4725 H       1  ZINC000486710336    0.0700
     58 H58       -12.1533    1.4231   61.4391 H       1  ZINC000486710336    0.0600
     59 H59       -11.2773    0.1149   62.2756 H       1  ZINC000486710336    0.0600
     60 H60       -10.1458    1.7874   59.9812 H       1  ZINC000486710336    0.0500
     61 H61        -9.7771    2.0417   61.7064 H       1  ZINC000486710336    0.0600
     62 H62        -8.0327    0.6612   60.6099 H       1  ZINC000486710336    0.1000
     63 H63        -8.8894   -0.2538   61.8674 H       1  ZINC000486710336    0.0700
@<TRIPOS>BOND
     1     1     2    1
     2     1    35    1
     3     1    36    1
     4     1    37    1
     5     2    11    1
     6     2     3    1
     7     3     4    2
     8     4     5    1
     9     4    10    1
    10     5     9    1
    11     5     6    1
    12     5    38    1
    13     6     7    1
    14     6    39    1
    15     6    40    1
    16     7     8    1
    17     7    41    1
    18     7    42    1
    19     8     9    1
    20     8    43    1
    21     8    44    1
    22     9    45    1
    23     9    46    1
    24    10    11    2
    25    10    47    1
    26    11    12    1
    27    12    13   am
    28    12    48    1
    29    13    14    2
    30    13    15    1
    31    15    16    2
    32    15    17   am
    33    17    33    1
    34    17    18    1
    35    18    19    1
    36    18    49    1
    37    18    50    1
    38    19    20    1
    39    19    21    1
    40    19    27    1
    41    21    26   ar
    42    21    22   ar
    43    22    23   ar
    44    22    51    1
    45    23    24   ar
    46    23    52    1
    47    24    25   ar
    48    24    53    1
    49    25    26   ar
    50    25    54    1
    51    26    55    1
    52    27    28    1
    53    27    33    1
    54    27    29    1
    55    29    30    1
    56    29    56    1
    57    29    57    1
    58    30    31    1
    59    30    58    1
    60    30    59    1
    61    31    32    1
    62    31    60    1
    63    31    61    1
    64    32    33    1
    65    32    62    1
    66    32    63    1
    67    33    34    1
@<TRIPOS>SUBSTRUCTURE
     1 ZINC000486710336        1 TEMP              0 ****  ****    0 ROOT


##########                                Name:    ZINC000506566356
##########                DOCK_Rotatable_Bonds:                  10
##########                         Heavy_Atoms:                  28
##########                    Molecular_Weight:               415.9
##########                DOCK_Rotatable_Bonds:                  10
##########                       Formal_Charge:           0.0199998
##########                     HBond_Acceptors:                   8
##########                        HBond_Donors:                   2
##########                         Heavy_Atoms:                  28
##########                          Grid_Score:          -32.545483
##########                     Grid_vdw_energy:          -30.797510
##########                      Grid_es_energy:           -1.747974
##########           Internal_energy_repulsive:            8.462500

@<TRIPOS>MOLECULE
ZINC000506566356
 46 48 1 0 0
SMALL
USER_CHARGES


@<TRIPOS>ATOM
      1 O1         -7.1705    1.0335   53.9401 O.2     1  ZINC000506566356   -0.5100
      2 C2         -6.9264    1.9648   54.6791 C.2     1  ZINC000506566356    0.5100
      3 N3         -7.5686    2.0751   55.8589 N.am    1  ZINC000506566356   -0.7000
      4 C4         -8.5655    1.0742   56.2466 C.3     1  ZINC000506566356    0.1200
      5 C5         -8.6358    0.9888   57.7727 C.3     1  ZINC000506566356   -0.0900
      6 C6         -9.4426   -0.2198   58.1716 C.ar    1  ZINC000506566356   -0.0700
      7 C7         -9.2158   -0.8303   59.3908 C.ar    1  ZINC000506566356   -0.1100
      8 C8         -9.9560   -1.9389   59.7578 C.ar    1  ZINC000506566356   -0.1000
      9 C9        -10.9228   -2.4376   58.9056 C.ar    1  ZINC000506566356   -0.1100
     10 C10       -11.1503   -1.8269   57.6849 C.ar    1  ZINC000506566356   -0.0300
     11 Cl11      -12.3650   -2.4525   56.6140 Cl      1  ZINC000506566356   -0.0700
     12 C12       -10.4134   -0.7143   57.3208 C.ar    1  ZINC000506566356   -0.1000
     13 C13        -5.9101    2.9851   54.2838 C.2     1  ZINC000506566356    0.5100
     14 O14        -5.6697    3.9193   55.0207 O.2     1  ZINC000506566356   -0.5000
     15 N15        -5.2599    2.8686   53.1091 N.am    1  ZINC000506566356   -0.6300
     16 C16        -4.3079    3.8243   52.7388 C.ar    1  ZINC000506566356    0.1100
     17 C17        -3.0148    3.7472   53.2360 C.ar    1  ZINC000506566356   -0.0800
     18 C18        -2.0762    4.6928   52.8686 C.ar    1  ZINC000506566356   -0.1400
     19 C19        -2.4220    5.7167   52.0063 C.ar    1  ZINC000506566356   -0.0900
     20 C20        -3.7088    5.8007   51.5069 C.ar    1  ZINC000506566356   -0.1900
     21 C21        -4.6542    4.8538   51.8649 C.ar    1  ZINC000506566356    0.1200
     22 O22        -5.9197    4.9350   51.3748 O.3     1  ZINC000506566356   -0.3100
     23 C23        -6.2594    4.0499   50.3055 C.3     1  ZINC000506566356    0.1400
     24 C24        -7.3905    4.6410   49.5042 C.2     1  ZINC000506566356    0.0500
     25 C25        -7.4105    5.9197   49.1162 C.2     1  ZINC000506566356   -0.2300
     26 S26        -8.8986    6.1887   48.2119 S.3     1  ZINC000506566356    0.1400
     27 C27        -9.3458    4.5551   48.4453 C.2     1  ZINC000506566356    0.0200
     28 N28        -8.4382    3.9380   49.1238 N.2     1  ZINC000506566356   -0.4700
     29 H29        -7.3707    2.8173   56.4513 H       1  ZINC000506566356    0.4200
     30 H30        -9.5407    1.3614   55.8535 H       1  ZINC000506566356    0.0800
     31 H31        -8.2820    0.1029   55.8412 H       1  ZINC000506566356    0.0800
     32 H32        -7.6278    0.9029   58.1786 H       1  ZINC000506566356    0.0900
     33 H33        -9.1102    1.8882   58.1653 H       1  ZINC000506566356    0.0900
     34 H34        -8.4598   -0.4413   60.0569 H       1  ZINC000506566356    0.1300
     35 H35        -9.7783   -2.4155   60.7105 H       1  ZINC000506566356    0.1300
     36 H36       -11.5004   -3.3041   59.1920 H       1  ZINC000506566356    0.1300
     37 H37       -10.5906   -0.2372   56.3682 H       1  ZINC000506566356    0.1300
     38 H38        -5.4519    2.1220   52.5203 H       1  ZINC000506566356    0.4300
     39 H39        -2.7419    2.9487   53.9099 H       1  ZINC000506566356    0.1500
     40 H40        -1.0701    4.6320   53.2564 H       1  ZINC000506566356    0.1300
     41 H41        -1.6850    6.4533   51.7221 H       1  ZINC000506566356    0.1300
     42 H42        -3.9755    6.6024   50.8341 H       1  ZINC000506566356    0.1400
     43 H43        -5.3918    3.9094   49.6607 H       1  ZINC000506566356    0.0900
     44 H44        -6.5679    3.0877   50.7144 H       1  ZINC000506566356    0.0900
     45 H45        -6.6492    6.6578   49.3208 H       1  ZINC000506566356    0.1800
     46 H46       -10.2543    4.1038   48.0745 H       1  ZINC000506566356    0.2100
@<TRIPOS>BOND
     1     1     2    2
     2     2     3   am
     3     2    13    1
     4     3     4    1
     5     3    29    1
     6     4     5    1
     7     4    30    1
     8     4    31    1
     9     5     6    1
    10     5    32    1
    11     5    33    1
    12     6    12   ar
    13     6     7   ar
    14     7     8   ar
    15     7    34    1
    16     8     9   ar
    17     8    35    1
    18     9    10   ar
    19     9    36    1
    20    10    11    1
    21    10    12   ar
    22    12    37    1
    23    13    14    2
    24    13    15   am
    25    15    16    1
    26    15    38    1
    27    16    21   ar
    28    16    17   ar
    29    17    18   ar
    30    17    39    1
    31    18    19   ar
    32    18    40    1
    33    19    20   ar
    34    19    41    1
    35    20    21   ar
    36    20    42    1
    37    21    22    1
    38    22    23    1
    39    23    24    1
    40    23    43    1
    41    23    44    1
    42    24    28    1
    43    24    25    2
    44    25    26    1
    45    25    45    1
    46    26    27    1
    47    27    28    2
    48    27    46    1
@<TRIPOS>SUBSTRUCTURE
     1 ZINC000506566356        1 TEMP              0 ****  ****    0 ROOT


##########                                Name:    ZINC000432253027
##########                DOCK_Rotatable_Bonds:                   8
##########                         Heavy_Atoms:                  26
##########                    Molecular_Weight:             401.436
##########                DOCK_Rotatable_Bonds:                   8
##########                       Formal_Charge:         1.19209e-07
##########                     HBond_Acceptors:                  11
##########                        HBond_Donors:                   0
##########                         Heavy_Atoms:                  26
##########                          Grid_Score:          -32.540375
##########                     Grid_vdw_energy:          -28.537254
##########                      Grid_es_energy:           -4.003119
##########           Internal_energy_repulsive:            6.535876

@<TRIPOS>MOLECULE
ZINC000432253027
 40 42 1 0 0
SMALL
USER_CHARGES


@<TRIPOS>ATOM
      1 C1        -11.9257   -1.6106   56.7171 C.3     1  ZINC000432253027    0.0300
      2 O2        -11.6602   -0.2717   56.2938 O.3     1  ZINC000432253027   -0.3100
      3 C3        -10.5853   -0.0822   55.4856 C.ar    1  ZINC000432253027    0.1500
      4 C4        -10.6891   -0.3158   54.1242 C.ar    1  ZINC000432253027   -0.2100
      5 C5         -9.5943   -0.1231   53.3026 C.ar    1  ZINC000432253027   -0.0600
      6 C6         -8.3892    0.3040   53.8322 C.ar    1  ZINC000432253027   -0.1600
      7 C7         -8.2697    0.5411   55.1862 C.ar    1  ZINC000432253027   -0.0300
      8 C8         -9.3690    0.3557   56.0245 C.ar    1  ZINC000432253027   -0.0600
      9 C9         -9.2475    0.6078   57.4755 C.2     1  ZINC000432253027    0.1200
     10 N10        -8.9778   -0.2910   58.3789 N.2     1  ZINC000432253027   -0.4600
     11 C11        -8.9080    0.1180   59.6253 C.2     1  ZINC000432253027    0.0800
     12 C12        -8.6027   -0.8246   60.7609 C.3     1  ZINC000432253027   -0.0200
     13 S13        -9.5310   -0.3171   62.2343 S.3     1  ZINC000432253027   -0.1700
     14 C14        -8.2215    0.0727   63.4276 C.3     1  ZINC000432253027   -0.0300
     15 C15        -8.8190    0.2008   64.8051 C.2     1  ZINC000432253027    0.2100
     16 N16        -9.0097   -0.7667   65.6686 N.2     1  ZINC000432253027   -0.2700
     17 N17        -9.5402   -0.2573   66.7263 N.2     1  ZINC000432253027   -0.0500
     18 N18        -9.6929    1.0102   66.5602 N.2     1  ZINC000432253027   -0.0700
     19 N19        -9.2552    1.3320   65.3898 N.pl3   1  ZINC000432253027   -0.3100
     20 C20        -9.2439    2.6745   64.8040 C.3     1  ZINC000432253027    0.0700
     21 C21       -10.6665    3.0665   64.3997 C.3     1  ZINC000432253027    0.4300
     22 F22       -11.3025    1.9694   63.8089 F       1  ZINC000432253027   -0.1500
     23 F23       -11.3811    3.4641   65.5350 F       1  ZINC000432253027   -0.1700
     24 F24       -10.6168    4.1246   63.4858 F       1  ZINC000432253027   -0.1700
     25 C25        -9.1241    1.4220   59.8239 C.2     1  ZINC000432253027   -0.2500
     26 S26        -9.4367    2.1735   58.2606 S.3     1  ZINC000432253027    0.1600
     27 H27       -12.8088   -1.6213   57.3559 H       1  ZINC000432253027    0.1000
     28 H28       -12.1010   -2.2396   55.8443 H       1  ZINC000432253027    0.0600
     29 H29       -11.0697   -1.9920   57.2739 H       1  ZINC000432253027    0.0600
     30 H30       -11.6265   -0.6492   53.7042 H       1  ZINC000432253027    0.1400
     31 H31        -9.6796   -0.3072   52.2418 H       1  ZINC000432253027    0.1300
     32 H32        -7.5388    0.4521   53.1831 H       1  ZINC000432253027    0.1300
     33 H33        -7.3274    0.8739   55.5957 H       1  ZINC000432253027    0.1400
     34 H34        -8.8919   -1.8373   60.4801 H       1  ZINC000432253027    0.1000
     35 H35        -7.5348   -0.7987   60.9775 H       1  ZINC000432253027    0.1100
     36 H36        -7.4794   -0.7256   63.4262 H       1  ZINC000432253027    0.1100
     37 H37        -7.7446    1.0125   63.1495 H       1  ZINC000432253027    0.1300
     38 H38        -8.8648    3.3874   65.5363 H       1  ZINC000432253027    0.1500
     39 H39        -8.6011    2.6814   63.9237 H       1  ZINC000432253027    0.1600
     40 H40        -9.1065    1.9285   60.7776 H       1  ZINC000432253027    0.1800
@<TRIPOS>BOND
     1     1     2    1
     2     1    27    1
     3     1    28    1
     4     1    29    1
     5     2     3    1
     6     3     8   ar
     7     3     4   ar
     8     4     5   ar
     9     4    30    1
    10     5     6   ar
    11     5    31    1
    12     6     7   ar
    13     6    32    1
    14     7     8   ar
    15     7    33    1
    16     8     9    1
    17     9    26    1
    18     9    10    2
    19    10    11    1
    20    11    12    1
    21    11    25    2
    22    12    13    1
    23    12    34    1
    24    12    35    1
    25    13    14    1
    26    14    15    1
    27    14    36    1
    28    14    37    1
    29    15    19    1
    30    15    16    2
    31    16    17    1
    32    17    18    2
    33    18    19    1
    34    19    20    1
    35    20    21    1
    36    20    38    1
    37    20    39    1
    38    21    22    1
    39    21    23    1
    40    21    24    1
    41    25    26    1
    42    25    40    1
@<TRIPOS>SUBSTRUCTURE
     1 ZINC000432253027        1 TEMP              0 ****  ****    0 ROOT


##########                                Name:    ZINC000066361645
##########                DOCK_Rotatable_Bonds:                   8
##########                         Heavy_Atoms:                  27
##########                    Molecular_Weight:             392.519
##########                DOCK_Rotatable_Bonds:                   8
##########                       Formal_Charge:           0.0100004
##########                     HBond_Acceptors:                   7
##########                        HBond_Donors:                   2
##########                         Heavy_Atoms:                  27
##########                          Grid_Score:          -32.520771
##########                     Grid_vdw_energy:          -30.842367
##########                      Grid_es_energy:           -1.678404
##########           Internal_energy_repulsive:            6.383365

@<TRIPOS>MOLECULE
ZINC000066361645
 55 57 1 0 0
SMALL
USER_CHARGES


@<TRIPOS>ATOM
      1 C1        -11.2894   -0.1707   52.3884 C.3     1  ZINC000066361645   -0.1400
      2 S2         -9.6204   -0.8368   52.6351 S.3     1  ZINC000066361645   -0.1100
      3 C3         -9.1197   -0.0988   54.1547 C.ar    1  ZINC000066361645   -0.1200
      4 C4         -9.6950   -0.5080   55.3483 C.ar    1  ZINC000066361645   -0.1100
      5 C5         -9.3009    0.0719   56.5455 C.ar    1  ZINC000066361645    0.0500
      6 C6         -8.3272    1.0631   56.5497 C.ar    1  ZINC000066361645    0.0700
      7 C7         -7.7516    1.4751   55.3565 C.ar    1  ZINC000066361645   -0.1100
      8 C8         -8.1401    0.8937   54.1598 C.ar    1  ZINC000066361645    0.1800
      9 N9         -7.5568    1.3112   52.9539 N.am    1  ZINC000066361645   -0.6600
     10 C10        -7.8176    2.5416   52.4697 C.2     1  ZINC000066361645    0.5100
     11 O11        -8.5566    3.2882   53.0764 O.2     1  ZINC000066361645   -0.5000
     12 C12        -7.1910    2.9901   51.1746 C.3     1  ZINC000066361645   -0.1500
     13 C13        -6.2259    4.1453   51.4480 C.3     1  ZINC000066361645    0.1600
     14 H14        -6.6843    4.8438   52.1479 H       1  ZINC000066361645    0.1000
     15 C15        -5.9122    4.8690   50.1370 C.3     1  ZINC000066361645   -0.1600
     16 N16        -4.9858    3.6195   52.0243 N.am    1  ZINC000066361645   -0.7200
     17 C17        -4.2477    4.3877   52.8500 C.2     1  ZINC000066361645    0.5300
     18 O18        -4.6107    5.5137   53.1167 O.2     1  ZINC000066361645   -0.5400
     19 C19        -2.9712    3.8474   53.4413 C.3     1  ZINC000066361645   -0.1100
     20 C20        -1.8001    4.1760   52.5133 C.3     1  ZINC000066361645   -0.1100
     21 C21        -0.5041    3.6275   53.1137 C.3     1  ZINC000066361645   -0.1200
     22 C22        -0.2652    4.2679   54.4825 C.3     1  ZINC000066361645   -0.1200
     23 C23        -1.4363    3.9393   55.4107 C.3     1  ZINC000066361645   -0.1200
     24 C24        -2.7323    4.4878   54.8102 C.3     1  ZINC000066361645   -0.1000
     25 O25        -7.9230    1.6376   57.7171 O.3     1  ZINC000066361645   -0.3000
     26 C26        -8.7821    1.4675   58.8496 C.3     1  ZINC000066361645    0.0200
     27 C27        -9.1968   -0.0084   58.9206 C.3     1  ZINC000066361645    0.0200
     28 O28        -9.8801   -0.3405   57.7072 O.3     1  ZINC000066361645   -0.3100
     29 H29       -11.9244   -0.4623   53.2250 H       1  ZINC000066361645    0.0900
     30 H30       -11.2417    0.9168   52.3303 H       1  ZINC000066361645    0.0900
     31 H31       -11.7052   -0.5661   51.4616 H       1  ZINC000066361645    0.1100
     32 H32       -10.4511   -1.2792   55.3459 H       1  ZINC000066361645    0.1400
     33 H33        -6.9968    2.2474   55.3605 H       1  ZINC000066361645    0.1600
     34 H34        -6.9659    0.7143   52.4688 H       1  ZINC000066361645    0.4100
     35 H35        -6.6456    2.1589   50.7278 H       1  ZINC000066361645    0.1000
     36 H36        -7.9711    3.3227   50.4897 H       1  ZINC000066361645    0.1200
     37 H37        -5.4538    4.1704   49.4370 H       1  ZINC000066361645    0.0600
     38 H38        -6.8348    5.2601   49.7082 H       1  ZINC000066361645    0.0700
     39 H39        -5.2245    5.6920   50.3318 H       1  ZINC000066361645    0.0700
     40 H40        -4.6960    2.7185   51.8118 H       1  ZINC000066361645    0.4000
     41 H41        -3.0524    2.7665   53.5551 H       1  ZINC000066361645    0.1000
     42 H42        -1.9701    3.7198   51.5380 H       1  ZINC000066361645    0.0600
     43 H43        -1.7187    5.2570   52.3995 H       1  ZINC000066361645    0.0700
     44 H44        -0.5853    2.5466   53.2275 H       1  ZINC000066361645    0.0600
     45 H45         0.3303    3.8616   52.4526 H       1  ZINC000066361645    0.0700
     46 H46         0.6581    3.8771   54.9103 H       1  ZINC000066361645    0.0600
     47 H47        -0.1840    5.3489   54.3689 H       1  ZINC000066361645    0.0600
     48 H48        -1.5175    2.8583   55.5244 H       1  ZINC000066361645    0.0600
     49 H49        -1.2662    4.3955   56.3859 H       1  ZINC000066361645    0.0700
     50 H50        -2.6511    5.5688   54.6965 H       1  ZINC000066361645    0.0700
     51 H51        -3.5666    4.2537   55.4714 H       1  ZINC000066361645    0.0700
     52 H52        -8.2498    1.7440   59.7597 H       1  ZINC000066361645    0.1300
     53 H53        -9.6676    2.0932   58.7365 H       1  ZINC000066361645    0.0800
     54 H54        -8.3109   -0.6344   59.0269 H       1  ZINC000066361645    0.0800
     55 H55        -9.8612   -0.1630   59.7708 H       1  ZINC000066361645    0.1200
@<TRIPOS>BOND
     1     1     2    1
     2     1    29    1
     3     1    30    1
     4     1    31    1
     5     2     3    1
     6     3     8   ar
     7     3     4   ar
     8     4     5   ar
     9     4    32    1
    10     5    28    1
    11     5     6   ar
    12     6     7   ar
    13     6    25    1
    14     7     8   ar
    15     7    33    1
    16     8     9    1
    17     9    10   am
    18     9    34    1
    19    10    11    2
    20    10    12    1
    21    12    13    1
    22    12    35    1
    23    12    36    1
    24    13    14    1
    25    13    15    1
    26    13    16    1
    27    15    37    1
    28    15    38    1
    29    15    39    1
    30    16    17   am
    31    16    40    1
    32    17    18    2
    33    17    19    1
    34    19    24    1
    35    19    20    1
    36    19    41    1
    37    20    21    1
    38    20    42    1
    39    20    43    1
    40    21    22    1
    41    21    44    1
    42    21    45    1
    43    22    23    1
    44    22    46    1
    45    22    47    1
    46    23    24    1
    47    23    48    1
    48    23    49    1
    49    24    50    1
    50    24    51    1
    51    25    26    1
    52    26    27    1
    53    26    52    1
    54    26    53    1
    55    27    28    1
    56    27    54    1
    57    27    55    1
@<TRIPOS>SUBSTRUCTURE
     1 ZINC000066361645        1 TEMP              0 ****  ****    0 ROOT


##########                                Name:    ZINC001326371752
##########                DOCK_Rotatable_Bonds:                   5
##########                         Heavy_Atoms:                  25
##########                    Molecular_Weight:             360.397
##########                DOCK_Rotatable_Bonds:                   5
##########                       Formal_Charge:           0.0199999
##########                     HBond_Acceptors:                  10
##########                        HBond_Donors:                   0
##########                         Heavy_Atoms:                  25
##########                          Grid_Score:          -32.513573
##########                     Grid_vdw_energy:          -31.018904
##########                      Grid_es_energy:           -1.494670
##########           Internal_energy_repulsive:           13.117948

@<TRIPOS>MOLECULE
ZINC001326371752
 41 44 1 0 0
SMALL
USER_CHARGES


@<TRIPOS>ATOM
      1 C1         -7.6751    3.1623   51.7173 C.3     1  ZINC001326371752    0.0300
      2 O2         -7.3649    1.8002   52.0187 O.3     1  ZINC001326371752   -0.3800
      3 C3         -7.0019    1.5748   53.3823 C.3     1  ZINC001326371752    0.0500
      4 C4         -8.2389    1.7225   54.2705 C.3     1  ZINC001326371752    0.1200
      5 N5         -8.8712    0.4131   54.4488 N.pl3   1  ZINC001326371752   -0.2800
      6 N6         -8.8617   -0.5562   53.5962 N.2     1  ZINC001326371752   -0.0800
      7 N7         -9.5125   -1.5681   54.0627 N.2     1  ZINC001326371752   -0.2500
      8 C8         -9.9707   -1.2567   55.2697 C.2     1  ZINC001326371752   -0.0400
      9 C9         -9.5584    0.0083   55.5318 C.2     1  ZINC001326371752    0.0000
     10 C10        -9.8496    0.7580   56.8038 C.3     1  ZINC001326371752   -0.0600
     11 C11       -11.0169    0.0712   57.5252 C.3     1  ZINC001326371752    0.1200
     12 N12       -10.8020   -1.3833   57.5180 N.am    1  ZINC001326371752   -0.6100
     13 C13       -10.6159   -2.0589   58.6692 C.2     1  ZINC001326371752    0.6100
     14 O14       -10.4393   -3.2628   58.6465 O.2     1  ZINC001326371752   -0.5100
     15 C15       -10.6262   -1.3429   59.9501 C.2     1  ZINC001326371752   -0.3400
     16 C16       -11.8180   -0.8191   60.4643 C.2     1  ZINC001326371752    0.2400
     17 N17       -11.7900   -0.1811   61.6189 N.2     1  ZINC001326371752   -0.5100
     18 C18       -10.6660   -0.0222   62.3051 C.2     1  ZINC001326371752    0.2900
     19 S19       -10.3739    0.7594   63.8119 S.3     1  ZINC001326371752    0.2500
     20 C20        -8.6363    0.4195   63.8222 C.2     1  ZINC001326371752   -0.2100
     21 C21        -8.4021   -0.2493   62.7058 C.2     1  ZINC001326371752    0.0500
     22 N22        -9.4683   -0.4997   61.8761 N.am    1  ZINC001326371752   -0.4600
     23 C23        -9.4351   -1.1746   60.6894 C.2     1  ZINC001326371752    0.5500
     24 O24        -8.3834   -1.6249   60.2690 O.2     1  ZINC001326371752   -0.5000
     25 C25       -10.7913   -2.0876   56.2232 C.3     1  ZINC001326371752    0.2000
     26 H26        -7.9404    3.2499   50.6638 H       1  ZINC001326371752    0.0900
     27 H27        -8.5144    3.4883   52.3317 H       1  ZINC001326371752    0.0500
     28 H28        -6.8072    3.7874   51.9267 H       1  ZINC001326371752    0.0500
     29 H29        -6.5962    0.5686   53.4887 H       1  ZINC001326371752    0.0600
     30 H30        -6.2494    2.3037   53.6832 H       1  ZINC001326371752    0.0600
     31 H31        -7.9434    2.1186   55.2420 H       1  ZINC001326371752    0.1200
     32 H32        -8.9452    2.4058   53.7990 H       1  ZINC001326371752    0.1200
     33 H33        -8.9675    0.7479   57.4441 H       1  ZINC001326371752    0.0900
     34 H34       -10.1206    1.7870   56.5677 H       1  ZINC001326371752    0.1000
     35 H35       -11.0685    0.4265   58.5544 H       1  ZINC001326371752    0.1100
     36 H36       -11.9498    0.3040   57.0116 H       1  ZINC001326371752    0.0800
     37 H37       -12.7460   -0.9351   59.9242 H       1  ZINC001326371752    0.1900
     38 H38        -7.9193    0.6997   64.5797 H       1  ZINC001326371752    0.2200
     39 H39        -7.4075   -0.5870   62.4549 H       1  ZINC001326371752    0.2000
     40 H40       -11.8088   -2.1824   55.8438 H       1  ZINC001326371752    0.1000
     41 H41       -10.3447   -3.0748   56.3413 H       1  ZINC001326371752    0.1000
@<TRIPOS>BOND
     1     1     2    1
     2     1    26    1
     3     1    27    1
     4     1    28    1
     5     2     3    1
     6     3     4    1
     7     3    29    1
     8     3    30    1
     9     4     5    1
    10     4    31    1
    11     4    32    1
    12     5     9    1
    13     5     6    1
    14     6     7    2
    15     7     8    1
    16     8    25    1
    17     8     9    2
    18     9    10    1
    19    10    11    1
    20    10    33    1
    21    10    34    1
    22    11    12    1
    23    11    35    1
    24    11    36    1
    25    12    13   am
    26    12    25    1
    27    13    14    2
    28    13    15    1
    29    15    23    1
    30    15    16    2
    31    16    17    1
    32    16    37    1
    33    17    18    2
    34    18    22    1
    35    18    19    1
    36    19    20    1
    37    20    21    2
    38    20    38    1
    39    21    22    1
    40    21    39    1
    41    22    23   am
    42    23    24    2
    43    25    40    1
    44    25    41    1
@<TRIPOS>SUBSTRUCTURE
     1 ZINC001326371752        1 TEMP              0 ****  ****    0 ROOT


##########                                Name:    ZINC000375302598
##########                DOCK_Rotatable_Bonds:                   8
##########                         Heavy_Atoms:                  27
##########                    Molecular_Weight:             368.479
##########                DOCK_Rotatable_Bonds:                   8
##########                       Formal_Charge:               -0.02
##########                     HBond_Acceptors:                   6
##########                        HBond_Donors:                   1
##########                         Heavy_Atoms:                  27
##########                          Grid_Score:          -32.481819
##########                     Grid_vdw_energy:          -32.664669
##########                      Grid_es_energy:            0.182850
##########           Internal_energy_repulsive:            5.617478

@<TRIPOS>MOLECULE
ZINC000375302598
 55 58 1 0 0
SMALL
USER_CHARGES


@<TRIPOS>ATOM
      1 C1         -1.2774   -1.7465   48.8423 C.3     1  ZINC000375302598   -0.1500
      2 C2          0.1788   -1.8950   48.3969 C.3     1  ZINC000375302598   -0.0300
      3 C3          1.0531   -0.9926   49.2289 C.2     1  ZINC000375302598    0.1800
      4 N4          1.1053    0.3163   49.1690 N.2     1  ZINC000375302598   -0.4700
      5 C5          2.0170    0.6847   50.0866 C.2     1  ZINC000375302598    0.1800
      6 C6          2.4414    2.0950   50.4061 C.3     1  ZINC000375302598    0.1500
      7 N7          1.6341    2.6085   51.5209 N.3     1  ZINC000375302598   -0.5300
      8 C8          2.4383    3.4641   52.4027 C.3     1  ZINC000375302598    0.0500
      9 C9          1.6086    3.8612   53.6257 C.3     1  ZINC000375302598   -0.1100
     10 C10         0.3539    4.6079   53.1646 C.3     1  ZINC000375302598   -0.1300
     11 C11        -0.4410    3.7131   52.2095 C.3     1  ZINC000375302598    0.1500
     12 H12        -0.7640    2.8152   52.7363 H       1  ZINC000375302598    0.1000
     13 N13        -1.6140    4.4412   51.7195 N.am    1  ZINC000375302598   -0.7300
     14 C14        -2.7710    4.3975   52.4093 C.2     1  ZINC000375302598    0.5200
     15 O15        -2.8415    3.7541   53.4350 O.2     1  ZINC000375302598   -0.5300
     16 C16        -3.9771    5.1478   51.9061 C.3     1  ZINC000375302598   -0.1100
     17 C17        -5.0790    4.1529   51.5363 C.3     1  ZINC000375302598   -0.1200
     18 H18        -4.7433    3.1389   51.3192 H       1  ZINC000375302598    0.1200
     19 C19        -6.2753    4.6857   50.7451 C.3     1  ZINC000375302598   -0.1700
     20 C20        -6.4372    4.3159   52.2216 C.3     1  ZINC000375302598   -0.1100
     21 H21        -6.5459    5.1322   52.9359 H       1  ZINC000375302598    0.1100
     22 C22        -7.2092    3.0627   52.5446 C.ar    1  ZINC000375302598   -0.0500
     23 C23        -8.3615    2.7607   51.8431 C.ar    1  ZINC000375302598   -0.1200
     24 C24        -9.0697    1.6111   52.1394 C.ar    1  ZINC000375302598   -0.1200
     25 C25        -8.6253    0.7632   53.1366 C.ar    1  ZINC000375302598   -0.1300
     26 C26        -7.4726    1.0647   53.8374 C.ar    1  ZINC000375302598   -0.1200
     27 C27        -6.7620    2.2122   53.5383 C.ar    1  ZINC000375302598   -0.1100
     28 C28         0.4481    3.3203   51.0276 C.3     1  ZINC000375302598    0.0500
     29 N29         2.4646   -0.3988   50.6473 N.2     1  ZINC000375302598   -0.3800
     30 O30         1.9194   -1.3731   50.1728 O.3     1  ZINC000375302598    0.0800
     31 H31        -1.5939   -0.7118   48.7107 H       1  ZINC000375302598    0.0600
     32 H32        -1.9097   -2.3993   48.2406 H       1  ZINC000375302598    0.0800
     33 H33        -1.3660   -2.0226   49.8931 H       1  ZINC000375302598    0.0600
     34 H34         0.4954   -2.9297   48.5287 H       1  ZINC000375302598    0.1100
     35 H35         0.2674   -1.6189   47.3462 H       1  ZINC000375302598    0.1000
     36 H36         3.4947    2.1028   50.6864 H       1  ZINC000375302598    0.0700
     37 H37         2.2939    2.7261   49.5298 H       1  ZINC000375302598    0.1100
     38 H38         3.3253    2.9196   52.7267 H       1  ZINC000375302598    0.0800
     39 H39         2.7403    4.3609   51.8619 H       1  ZINC000375302598    0.0400
     40 H40         1.3179    2.9655   54.1747 H       1  ZINC000375302598    0.0700
     41 H41         2.2006    4.5089   54.2724 H       1  ZINC000375302598    0.0700
     42 H42        -0.2617    4.8548   54.0297 H       1  ZINC000375302598    0.0700
     43 H43         0.6438    5.5237   52.6494 H       1  ZINC000375302598    0.0600
     44 H44        -1.5579    4.9549   50.8986 H       1  ZINC000375302598    0.4000
     45 H45        -4.3394    5.8180   52.6858 H       1  ZINC000375302598    0.1000
     46 H46        -3.7023    5.7293   51.0261 H       1  ZINC000375302598    0.1000
     47 H47        -6.2773    5.7449   50.4881 H       1  ZINC000375302598    0.1000
     48 H48        -6.7269    4.0220   50.0077 H       1  ZINC000375302598    0.1000
     49 H49        -8.7086    3.4231   51.0639 H       1  ZINC000375302598    0.1200
     50 H50        -9.9703    1.3755   51.5918 H       1  ZINC000375302598    0.1200
     51 H51        -9.1791   -0.1346   53.3685 H       1  ZINC000375302598    0.1200
     52 H52        -7.1256    0.4025   54.6167 H       1  ZINC000375302598    0.1200
     53 H53        -5.8614    2.4477   54.0858 H       1  ZINC000375302598    0.1200
     54 H54         0.7594    4.2178   50.4932 H       1  ZINC000375302598    0.0400
     55 H55        -0.1103    2.6714   50.3529 H       1  ZINC000375302598    0.0900
@<TRIPOS>BOND
     1     1     2    1
     2     1    31    1
     3     1    32    1
     4     1    33    1
     5     2     3    1
     6     2    34    1
     7     2    35    1
     8     3    30    1
     9     3     4    2
    10     4     5    1
    11     5     6    1
    12     5    29    2
    13     6     7    1
    14     6    36    1
    15     6    37    1
    16     7    28    1
    17     7     8    1
    18     8     9    1
    19     8    38    1
    20     8    39    1
    21     9    10    1
    22     9    40    1
    23     9    41    1
    24    10    11    1
    25    10    42    1
    26    10    43    1
    27    11    12    1
    28    11    13    1
    29    11    28    1
    30    13    14   am
    31    13    44    1
    32    14    15    2
    33    14    16    1
    34    16    17    1
    35    16    45    1
    36    16    46    1
    37    17    18    1
    38    17    20    1
    39    17    19    1
    40    19    20    1
    41    19    47    1
    42    19    48    1
    43    20    21    1
    44    20    22    1
    45    22    27   ar
    46    22    23   ar
    47    23    24   ar
    48    23    49    1
    49    24    25   ar
    50    24    50    1
    51    25    26   ar
    52    25    51    1
    53    26    27   ar
    54    26    52    1
    55    27    53    1
    56    28    54    1
    57    28    55    1
    58    29    30    1
@<TRIPOS>SUBSTRUCTURE
     1 ZINC000375302598        1 TEMP              0 ****  ****    0 ROOT


##########                                Name:     oleObject42.pdb
##########                DOCK_Rotatable_Bonds:                   9
##########                         Heavy_Atoms:                  36
##########                    Molecular_Weight:             527.493
##########                DOCK_Rotatable_Bonds:                   9
##########                       Formal_Charge:         9.99384e-05
##########                     HBond_Acceptors:                   8
##########                        HBond_Donors:                   0
##########                         Heavy_Atoms:                  36
##########                          Grid_Score:          -32.481239
##########                     Grid_vdw_energy:          -32.845104
##########                      Grid_es_energy:            0.363866
##########           Internal_energy_repulsive:           27.663776

@<TRIPOS>MOLECULE
oleObject42.pdb
 68 71 1 0 0
SMALL
NO_CHARGES


@<TRIPOS>ATOM
      1 C         -11.8850   -2.3928   59.4316 C.ar    1  UNL        -0.0435
      2 C         -12.8798   -1.4238   59.6269 C.ar    1  UNL        -0.0559
      3 C         -12.5919   -0.2935   60.4148 C.ar    1  UNL        -0.0272
      4 C         -11.2983   -0.1800   60.9839 C.ar    1  UNL         0.0699
      5 N         -10.3473   -1.1229   60.7873 N.ar    1  UNL        -0.2586
      6 C         -10.6320   -2.2000   60.0318 C.ar    1  UNL         0.0272
      7 C         -10.9021    1.0239   61.8556 C.3     1  UNL         0.1101
      8 C          -9.9096    0.6625   62.9777 C.ar    1  UNL         0.0699
      9 C         -10.2131    0.9129   64.3398 C.ar    1  UNL        -0.0272
     10 C          -9.2573    0.5682   65.3141 C.ar    1  UNL        -0.0559
     11 C          -8.0441   -0.0062   64.9085 C.ar    1  UNL        -0.0435
     12 C          -7.8247   -0.2160   63.5393 C.ar    1  UNL         0.0272
     13 N          -8.7317    0.1115   62.6004 N.ar    1  UNL        -0.2586
     14 C         -11.5331    1.5385   64.7770 C.3     1  UNL        -0.0379
     15 N         -10.5115    2.2146   61.0507 N.am    1  UNL        -0.2902
     16 C          -9.5730    2.1590   60.0194 C.2     1  UNL         0.2180
     17 O          -8.8423    1.1888   59.9043 O.2     1  UNL        -0.2772
     18 C          -9.2684    3.4796   59.2705 C.3     1  UNL         0.0385
     19 C         -10.3325    3.7697   58.1846 C.3     1  UNL        -0.0289
     20 C         -10.1647    2.8651   56.9450 C.3     1  UNL        -0.0010
     21 N          -8.8005    2.9652   56.3827 N.4     1  UNL        -0.3010
     22 C          -7.7267    2.6610   57.3543 C.3     1  UNL        -0.0010
     23 C          -7.8488    3.5056   58.6455 C.3     1  UNL        -0.0289
     24 C          -8.6377    2.2921   55.0750 C.3     1  UNL         0.0222
     25 C          -7.3077    2.6199   54.3601 C.3     1  UNL         0.0661
     26 O          -7.3706    2.0645   53.0371 O.3     1  UNL        -0.3432
     27 C          -7.6048    2.9023   51.9746 C.ar    1  UNL         0.0937
     28 C          -8.9092    3.0075   51.4629 C.ar    1  UNL        -0.0288
     29 C          -9.1716    3.8564   50.3749 C.ar    1  UNL        -0.0408
     30 C          -8.1272    4.5975   49.7972 C.ar    1  UNL         0.0422
     31 C          -6.8209    4.4905   50.3032 C.ar    1  UNL        -0.0221
     32 C          -6.5564    3.6421   51.3916 C.ar    1  UNL         0.0723
     33 CL         -4.9163    3.5225   52.0012 Cl      1  UNL        -0.0814
     34 CL         -8.4539    5.6552   48.4410 Cl      1  UNL        -0.0843
     35 C         -11.0453    3.5162   61.4998 C.3     1  UNL         0.0038
     36 C         -13.6706    0.7635   60.6259 C.3     1  UNL        -0.0379
     37 H         -12.0796   -3.2739   58.8273 H       1  UNL         0.0639
     38 H         -13.8579   -1.5498   59.1712 H       1  UNL         0.0627
     39 H          -9.8317   -2.9278   59.9042 H       1  UNL         0.0840
     40 H         -11.8202    1.3132   62.3733 H       1  UNL         0.0643
     41 H          -9.4507    0.7412   66.3689 H       1  UNL         0.0627
     42 H          -7.2896   -0.2831   65.6389 H       1  UNL         0.0639
     43 H          -6.8960   -0.6593   63.1821 H       1  UNL         0.0840
     44 H         -11.6365    2.5579   64.3850 H       1  UNL         0.0280
     45 H         -11.6083    1.5997   65.8699 H       1  UNL         0.0280
     46 H         -12.3885    0.9486   64.4256 H       1  UNL         0.0280
     47 H          -9.2944    4.3017   59.9930 H       1  UNL         0.0402
     48 H         -10.2439    4.8174   57.8692 H       1  UNL         0.0288
     49 H         -11.3418    3.6495   58.5956 H       1  UNL         0.0288
     50 H         -10.9022    3.1638   56.1889 H       1  UNL         0.0431
     51 H         -10.3801    1.8275   57.2303 H       1  UNL         0.0431
     52 H          -6.7478    2.8580   56.8988 H       1  UNL         0.0431
     53 H          -7.7534    1.5976   57.6196 H       1  UNL         0.0431
     54 H          -7.5959    4.5450   58.3992 H       1  UNL         0.0288
     55 H          -7.1075    3.1710   59.3825 H       1  UNL         0.0288
     56 H          -9.4677    2.5758   54.4154 H       1  UNL         0.0455
     57 H          -8.6970    1.2056   55.2185 H       1  UNL         0.0455
     58 H          -6.4661    2.1817   54.9105 H       1  UNL         0.0586
     59 H          -7.1637    3.7059   54.3046 H       1  UNL         0.0586
     60 H          -9.7144    2.4319   51.9104 H       1  UNL         0.0652
     61 H         -10.1808    3.9380   49.9812 H       1  UNL         0.0639
     62 H          -6.0152    5.0628   49.8522 H       1  UNL         0.0655
     63 H         -12.0339    3.3904   61.9587 H       1  UNL         0.0433
     64 H         -11.1465    4.1954   60.6438 H       1  UNL         0.0433
     65 H         -10.3615    3.9627   62.2325 H       1  UNL         0.0433
     66 H         -14.5876    0.5197   60.0753 H       1  UNL         0.0280
     67 H         -13.3361    1.7482   60.2778 H       1  UNL         0.0280
     68 H         -13.9396    0.8477   61.6858 H       1  UNL         0.0280
@<TRIPOS>BOND
     1     1     2   ar
     2     1     6   ar
     3     1    37    1
     4     2     3   ar
     5     2    38    1
     6     3     4   ar
     7     3    36    1
     8     4     5   ar
     9     4     7    1
    10     5     6   ar
    11     6    39    1
    12     7     8    1
    13     7    15    1
    14     7    40    1
    15     8     9   ar
    16     8    13   ar
    17     9    10   ar
    18     9    14    1
    19    10    11   ar
    20    10    41    1
    21    11    12   ar
    22    11    42    1
    23    12    13   ar
    24    12    43    1
    25    14    44    1
    26    14    45    1
    27    14    46    1
    28    15    16   am
    29    15    35    1
    30    16    17    2
    31    16    18    1
    32    18    19    1
    33    18    23    1
    34    18    47    1
    35    19    20    1
    36    19    48    1
    37    19    49    1
    38    20    21    1
    39    20    50    1
    40    20    51    1
    41    21    22    1
    42    21    24    1
    43    22    23    1
    44    22    52    1
    45    22    53    1
    46    23    54    1
    47    23    55    1
    48    24    25    1
    49    24    56    1
    50    24    57    1
    51    25    26    1
    52    25    58    1
    53    25    59    1
    54    26    27    1
    55    27    28   ar
    56    27    32   ar
    57    28    29   ar
    58    28    60    1
    59    29    30   ar
    60    29    61    1
    61    30    31   ar
    62    30    34    1
    63    31    32   ar
    64    31    62    1
    65    32    33    1
    66    35    63    1
    67    35    64    1
    68    35    65    1
    69    36    66    1
    70    36    67    1
    71    36    68    1
@<TRIPOS>SUBSTRUCTURE
     1 UNL         1 TEMP              0 ****  ****    0 ROOT


##########                                Name:    ZINC000505965769
##########                DOCK_Rotatable_Bonds:                   9
##########                         Heavy_Atoms:                  29
##########                    Molecular_Weight:              419.88
##########                DOCK_Rotatable_Bonds:                   9
##########                       Formal_Charge:               -0.02
##########                     HBond_Acceptors:                   7
##########                        HBond_Donors:                   1
##########                         Heavy_Atoms:                  29
##########                          Grid_Score:          -32.423641
##########                     Grid_vdw_energy:          -29.483498
##########                      Grid_es_energy:           -2.940145
##########           Internal_energy_repulsive:           10.048153

@<TRIPOS>MOLECULE
ZINC000505965769
 52 54 1 0 0
SMALL
USER_CHARGES


@<TRIPOS>ATOM
      1 C1         -0.8975   -1.8445   49.0721 C.3     1  ZINC000505965769    0.0200
      2 O2          0.5310   -1.8284   49.0339 O.3     1  ZINC000505965769   -0.3100
      3 C3          1.1513   -0.7802   49.6314 C.ar    1  ZINC000505965769    0.1800
      4 C4          0.9197    0.5134   49.1755 C.ar    1  ZINC000505965769   -0.2200
      5 C5          1.5394    1.5747   49.7711 C.ar    1  ZINC000505965769   -0.0200
      6 C6          2.4124    1.3637   50.8456 C.ar    1  ZINC000505965769   -0.2100
      7 C7          3.0791    2.5027   51.4876 C.2     1  ZINC000505965769    0.3900
      8 O8          4.2905    2.5572   51.5193 O.2     1  ZINC000505965769   -0.4400
      9 C9          2.2588    3.6045   52.1073 C.3     1  ZINC000505965769   -0.1500
     10 C10         2.1072    3.3454   53.6076 C.3     1  ZINC000505965769   -0.1300
     11 C11         0.9925    4.1993   54.1547 C.2     1  ZINC000505965769    0.5200
     12 O12         1.0521    5.4070   54.0616 O.2     1  ZINC000505965769   -0.5300
     13 N13        -0.0708    3.6207   54.7474 N.am    1  ZINC000505965769   -0.7200
     14 C14        -1.1536    4.4508   55.2808 C.3     1  ZINC000505965769    0.1900
     15 H15        -0.7377    5.3713   55.6906 H       1  ZINC000505965769    0.1100
     16 C16        -2.1213    4.7855   54.1750 C.ar    1  ZINC000505965769   -0.1000
     17 C17        -2.1768    6.0719   53.6717 C.ar    1  ZINC000505965769   -0.0900
     18 C18        -3.0638    6.3799   52.6577 C.ar    1  ZINC000505965769   -0.1500
     19 C19        -3.8967    5.3996   52.1455 C.ar    1  ZINC000505965769    0.1000
     20 F20        -4.7639    5.6995   51.1540 F       1  ZINC000505965769   -0.1400
     21 C21        -3.8398    4.1114   52.6502 C.ar    1  ZINC000505965769   -0.1500
     22 C22        -2.9486    3.8045   53.6609 C.ar    1  ZINC000505965769   -0.0600
     23 C23        -1.8859    3.6861   56.3852 C.3     1  ZINC000505965769    0.0800
     24 H24        -2.3303    2.7755   55.9833 H       1  ZINC000505965769    0.0700
     25 C25        -0.9109    3.3441   57.5400 C.3     1  ZINC000505965769   -0.1500
     26 C26        -1.9001    3.2033   58.7290 C.3     1  ZINC000505965769   -0.1600
     27 C27        -2.9754    4.2569   58.3871 C.3     1  ZINC000505965769    0.0500
     28 O28        -2.8978    4.5149   56.9789 O.3     1  ZINC000505965769   -0.3700
     29 C29         2.6466    0.0601   51.3060 C.ar    1  ZINC000505965769    0.0500
     30 Cl30        3.7267   -0.2132   52.6372 Cl      1  ZINC000505965769   -0.0200
     31 C31         2.0117   -1.0026   50.7006 C.ar    1  ZINC000505965769   -0.1600
     32 H32        -1.2842   -0.9541   48.5763 H       1  ZINC000505965769    0.0600
     33 H33        -1.2646   -2.7339   48.5599 H       1  ZINC000505965769    0.1100
     34 H34        -1.2331   -1.8578   50.1090 H       1  ZINC000505965769    0.0600
     35 H35         0.2472    0.6791   48.3469 H       1  ZINC000505965769    0.1400
     36 H36         1.3564    2.5771   49.4130 H       1  ZINC000505965769    0.1500
     37 H37         2.7586    4.5607   51.9525 H       1  ZINC000505965769    0.1100
     38 H38         1.2736    3.6299   51.6416 H       1  ZINC000505965769    0.1100
     39 H39         1.8739    2.2936   53.7729 H       1  ZINC000505965769    0.1000
     40 H40         3.0389    3.5950   54.1154 H       1  ZINC000505965769    0.1000
     41 H41        -0.1190    2.6547   54.8207 H       1  ZINC000505965769    0.4000
     42 H42        -1.5271    6.8364   54.0713 H       1  ZINC000505965769    0.1300
     43 H43        -3.1075    7.3850   52.2650 H       1  ZINC000505965769    0.1400
     44 H44        -4.4892    3.3460   52.2517 H       1  ZINC000505965769    0.1400
     45 H45        -2.9038    2.7998   54.0544 H       1  ZINC000505965769    0.1400
     46 H46        -0.3897    2.4061   57.3493 H       1  ZINC000505965769    0.0700
     47 H47        -0.2043    4.1563   57.7109 H       1  ZINC000505965769    0.1000
     48 H48        -2.3323    2.2030   58.7576 H       1  ZINC000505965769    0.0700
     49 H49        -1.4091    3.4420   59.6724 H       1  ZINC000505965769    0.0800
     50 H50        -3.9638    3.8709   58.6370 H       1  ZINC000505965769    0.0700
     51 H51        -2.7840    5.1745   58.9434 H       1  ZINC000505965769    0.0700
     52 H52         2.1883   -2.0086   51.0516 H       1  ZINC000505965769    0.1500
@<TRIPOS>BOND
     1     1     2    1
     2     1    32    1
     3     1    33    1
     4     1    34    1
     5     2     3    1
     6     3    31   ar
     7     3     4   ar
     8     4     5   ar
     9     4    35    1
    10     5     6   ar
    11     5    36    1
    12     6     7    1
    13     6    29   ar
    14     7     8    2
    15     7     9    1
    16     9    10    1
    17     9    37    1
    18     9    38    1
    19    10    11    1
    20    10    39    1
    21    10    40    1
    22    11    12    2
    23    11    13   am
    24    13    14    1
    25    13    41    1
    26    14    15    1
    27    14    16    1
    28    14    23    1
    29    16    22   ar
    30    16    17   ar
    31    17    18   ar
    32    17    42    1
    33    18    19   ar
    34    18    43    1
    35    19    20    1
    36    19    21   ar
    37    21    22   ar
    38    21    44    1
    39    22    45    1
    40    23    24    1
    41    23    28    1
    42    23    25    1
    43    25    26    1
    44    25    46    1
    45    25    47    1
    46    26    27    1
    47    26    48    1
    48    26    49    1
    49    27    28    1
    50    27    50    1
    51    27    51    1
    52    29    30    1
    53    29    31   ar
    54    31    52    1
@<TRIPOS>SUBSTRUCTURE
     1 ZINC000505965769        1 TEMP              0 ****  ****    0 ROOT


##########                                Name:    ZINC000550217006
##########                DOCK_Rotatable_Bonds:                   7
##########                         Heavy_Atoms:                  27
##########                    Molecular_Weight:             367.404
##########                DOCK_Rotatable_Bonds:                   7
##########                       Formal_Charge:          0.00999951
##########                     HBond_Acceptors:                   7
##########                        HBond_Donors:                   3
##########                         Heavy_Atoms:                  27
##########                          Grid_Score:          -32.420963
##########                     Grid_vdw_energy:          -30.857235
##########                      Grid_es_energy:           -1.563728
##########           Internal_energy_repulsive:           11.236522

@<TRIPOS>MOLECULE
ZINC000550217006
 48 50 1 0 0
SMALL
USER_CHARGES


@<TRIPOS>ATOM
      1 C1         -3.2696    4.4051   52.7218 C.3     1  ZINC000550217006   -0.1500
      2 C2         -2.5470    3.9080   53.9756 C.3     1  ZINC000550217006    0.0500
      3 O3         -3.2853    4.2955   55.1360 O.3     1  ZINC000550217006   -0.3100
      4 C4         -2.7554    3.9655   56.3432 C.ar    1  ZINC000550217006    0.1400
      5 C5         -1.6059    3.1918   56.4091 C.ar    1  ZINC000550217006   -0.2100
      6 C6         -1.0687    2.8581   57.6375 C.ar    1  ZINC000550217006   -0.0800
      7 C7         -1.6762    3.2940   58.8003 C.ar    1  ZINC000550217006   -0.1600
      8 C8         -2.8224    4.0651   58.7373 C.ar    1  ZINC000550217006   -0.0700
      9 C9         -3.3599    4.4066   57.5116 C.ar    1  ZINC000550217006   -0.1200
     10 C10        -4.6087    5.2473   57.4435 C.3     1  ZINC000550217006   -0.0800
     11 C11        -5.7980    4.4369   57.9631 C.3     1  ZINC000550217006    0.1300
     12 N12        -6.2946    3.5614   56.8988 N.am    1  ZINC000550217006   -0.7200
     13 C13        -7.0870    2.5143   57.2023 C.2     1  ZINC000550217006    0.5600
     14 O14        -7.3884    2.2956   58.3591 O.2     1  ZINC000550217006   -0.5300
     15 C15        -7.5905    1.6304   56.1264 C.ar    1  ZINC000550217006   -0.0800
     16 C16        -7.0053    1.6675   54.8586 C.ar    1  ZINC000550217006   -0.1000
     17 C17        -7.4761    0.8469   53.8630 C.ar    1  ZINC000550217006   -0.0500
     18 C18        -8.5431   -0.0346   54.1036 C.ar    1  ZINC000550217006   -0.1300
     19 C19        -9.1277   -0.0769   55.3689 C.ar    1  ZINC000550217006    0.1800
     20 C20        -8.6423    0.7580   56.3769 C.ar    1  ZINC000550217006   -0.0900
     21 N21       -10.1743   -0.9215   55.6974 N.am    1  ZINC000550217006   -0.6600
     22 C22       -11.2215   -1.1945   54.9251 C.2     1  ZINC000550217006    0.5100
     23 O23       -12.0950   -1.9189   55.3528 O.2     1  ZINC000550217006   -0.5100
     24 C24       -11.3550   -0.6311   53.5369 C.3     1  ZINC000550217006    0.0900
     25 N25       -10.2656   -1.1500   52.7096 N.am    1  ZINC000550217006   -0.7100
     26 C26        -8.9916   -0.8760   52.9847 C.2     1  ZINC000550217006    0.5600
     27 O27        -8.1408   -1.3548   52.2604 O.2     1  ZINC000550217006   -0.5200
     28 H28        -3.3498    5.4916   52.7554 H       1  ZINC000550217006    0.0700
     29 H29        -2.7064    4.1094   51.8367 H       1  ZINC000550217006    0.0800
     30 H30        -4.2674    3.9682   52.6803 H       1  ZINC000550217006    0.0700
     31 H31        -2.4669    2.8214   53.9420 H       1  ZINC000550217006    0.0600
     32 H32        -1.5492    4.3448   54.0171 H       1  ZINC000550217006    0.0600
     33 H33        -1.1314    2.8503   55.5009 H       1  ZINC000550217006    0.1300
     34 H34        -0.1739    2.2557   57.6894 H       1  ZINC000550217006    0.1300
     35 H35        -1.2550    3.0318   59.7597 H       1  ZINC000550217006    0.1300
     36 H36        -3.2954    4.4042   59.6471 H       1  ZINC000550217006    0.1300
     37 H37        -4.4804    6.1387   58.0575 H       1  ZINC000550217006    0.0800
     38 H38        -4.7930    5.5413   56.4102 H       1  ZINC000550217006    0.0800
     39 H39        -5.4820    3.8323   58.8132 H       1  ZINC000550217006    0.0700
     40 H40        -6.5917    5.1157   58.2752 H       1  ZINC000550217006    0.0700
     41 H41        -6.0532    3.7352   55.9755 H       1  ZINC000550217006    0.4000
     42 H42        -6.1840    2.3407   54.6614 H       1  ZINC000550217006    0.1400
     43 H43        -7.0211    0.8799   52.8842 H       1  ZINC000550217006    0.1500
     44 H44        -9.0936    0.7312   57.3577 H       1  ZINC000550217006    0.1500
     45 H45       -10.1404   -1.3517   56.5661 H       1  ZINC000550217006    0.4200
     46 H46       -12.3122   -0.9322   53.1111 H       1  ZINC000550217006    0.1300
     47 H47       -11.2969    0.4565   53.5770 H       1  ZINC000550217006    0.1000
     48 H48       -10.4759   -1.7065   51.9436 H       1  ZINC000550217006    0.4200
@<TRIPOS>BOND
     1     1     2    1
     2     1    28    1
     3     1    29    1
     4     1    30    1
     5     2     3    1
     6     2    31    1
     7     2    32    1
     8     3     4    1
     9     4     9   ar
    10     4     5   ar
    11     5     6   ar
    12     5    33    1
    13     6     7   ar
    14     6    34    1
    15     7     8   ar
    16     7    35    1
    17     8     9   ar
    18     8    36    1
    19     9    10    1
    20    10    11    1
    21    10    37    1
    22    10    38    1
    23    11    12    1
    24    11    39    1
    25    11    40    1
    26    12    13   am
    27    12    41    1
    28    13    14    2
    29    13    15    1
    30    15    20   ar
    31    15    16   ar
    32    16    17   ar
    33    16    42    1
    34    17    18   ar
    35    17    43    1
    36    18    26    1
    37    18    19   ar
    38    19    20   ar
    39    19    21    1
    40    20    44    1
    41    21    22   am
    42    21    45    1
    43    22    23    2
    44    22    24    1
    45    24    25    1
    46    24    46    1
    47    24    47    1
    48    25    26   am
    49    25    48    1
    50    26    27    2
@<TRIPOS>SUBSTRUCTURE
     1 ZINC000550217006        1 TEMP              0 ****  ****    0 ROOT


##########                                Name:    ZINC001411334959
##########                DOCK_Rotatable_Bonds:                   9
##########                         Heavy_Atoms:                  24
##########                    Molecular_Weight:              339.37
##########                DOCK_Rotatable_Bonds:                   9
##########                       Formal_Charge:           0.0199995
##########                     HBond_Acceptors:                   9
##########                        HBond_Donors:                   3
##########                         Heavy_Atoms:                  24
##########                          Grid_Score:          -32.404510
##########                     Grid_vdw_energy:          -29.243631
##########                      Grid_es_energy:           -3.160878
##########           Internal_energy_repulsive:            6.192341

@<TRIPOS>MOLECULE
ZINC001411334959
 46 48 1 0 0
SMALL
USER_CHARGES


@<TRIPOS>ATOM
      1 O1        -10.2367   -1.7257   56.3734 O.2     1  ZINC001411334959   -0.5400
      2 C2        -11.2594   -1.5910   55.7355 C.2     1  ZINC001411334959    0.5200
      3 C3        -12.5902   -1.9007   56.3711 C.3     1  ZINC001411334959   -0.1400
      4 C4        -12.4713   -3.1763   57.2077 C.3     1  ZINC001411334959   -0.0100
      5 C5        -13.7926   -3.4665   57.8718 C.2     1  ZINC001411334959    0.0100
      6 N6        -14.7781   -4.1902   57.3910 N.2     1  ZINC001411334959   -0.2800
      7 N7        -15.7359   -4.2053   58.2491 N.pl3   1  ZINC001411334959   -0.2500
      8 N8        -15.4265   -3.5161   59.2897 N.2     1  ZINC001411334959   -0.2800
      9 C9        -14.2183   -3.0262   59.1271 C.2     1  ZINC001411334959   -0.0200
     10 N10       -11.2061   -1.1591   54.4599 N.am    1  ZINC001411334959   -0.7200
     11 C11        -9.9124   -0.8580   53.8420 C.3     1  ZINC001411334959    0.1200
     12 C12       -10.0215    0.0026   52.5722 C.3     1  ZINC001411334959   -0.1400
     13 C13        -8.7744    0.7531   53.0685 C.3     1  ZINC001411334959   -0.1200
     14 C14        -8.8361    2.2642   52.8372 C.3     1  ZINC001411334959    0.1300
     15 N15        -8.3733    2.5699   51.4812 N.am    1  ZINC001411334959   -0.7200
     16 C16        -8.2979    3.8505   51.0676 C.2     1  ZINC001411334959    0.5100
     17 O17        -8.6119    4.7497   51.8183 O.2     1  ZINC001411334959   -0.5100
     18 C18        -7.8236    4.1649   49.6722 C.3     1  ZINC001411334959    0.0700
     19 F19        -7.0688    3.1066   49.1549 F       1  ZINC001411334959   -0.1800
     20 C20        -9.0222    4.5004   48.7434 C.3     1  ZINC001411334959   -0.1600
     21 C21        -8.3425    5.4367   47.7126 C.3     1  ZINC001411334959    0.0500
     22 O22        -7.3891    6.1988   48.4698 O.3     1  ZINC001411334959   -0.3700
     23 C23        -7.0141    5.4793   49.6501 C.3     1  ZINC001411334959    0.0400
     24 C24        -9.1820    0.3303   54.4897 C.3     1  ZINC001411334959   -0.1400
     25 H25       -12.8880   -1.0716   57.0132 H       1  ZINC001411334959    0.1000
     26 H26       -13.3397   -2.0451   55.5931 H       1  ZINC001411334959    0.1000
     27 H27       -12.1985   -4.0105   56.5614 H       1  ZINC001411334959    0.1000
     28 H28       -11.7037   -3.0408   57.9696 H       1  ZINC001411334959    0.0900
     29 H29       -16.5770   -4.6728   58.1278 H       1  ZINC001411334959    0.4700
     30 H30       -13.6695   -2.4048   59.8192 H       1  ZINC001411334959    0.2000
     31 H31       -12.0244   -1.0476   53.9510 H       1  ZINC001411334959    0.4000
     32 H32        -9.2858   -1.7415   53.7197 H       1  ZINC001411334959    0.1200
     33 H33        -9.8572   -0.5559   51.6507 H       1  ZINC001411334959    0.0800
     34 H34       -10.9188    0.6206   52.5394 H       1  ZINC001411334959    0.0900
     35 H35        -7.8364    0.3113   52.7322 H       1  ZINC001411334959    0.1000
     36 H36        -9.8634    2.6085   52.9567 H       1  ZINC001411334959    0.0800
     37 H37        -8.1971    2.7691   53.5617 H       1  ZINC001411334959    0.0800
     38 H38        -8.1210    1.8508   50.8811 H       1  ZINC001411334959    0.4100
     39 H39        -9.4100    3.6024   48.2625 H       1  ZINC001411334959    0.1000
     40 H40        -9.8083    5.0221   49.2894 H       1  ZINC001411334959    0.1100
     41 H41        -7.8353    4.8507   46.9461 H       1  ZINC001411334959    0.0700
     42 H42        -9.0802    6.0979   47.2580 H       1  ZINC001411334959    0.1000
     43 H43        -7.2475    6.0722   50.5345 H       1  ZINC001411334959    0.0900
     44 H44        -5.9475    5.2562   49.6240 H       1  ZINC001411334959    0.0900
     45 H45        -9.8498    1.0378   54.9811 H       1  ZINC001411334959    0.0900
     46 H46        -8.3399    0.0363   55.1162 H       1  ZINC001411334959    0.0800
@<TRIPOS>BOND
     1     1     2    2
     2     2     3    1
     3     2    10   am
     4     3     4    1
     5     3    25    1
     6     3    26    1
     7     4     5    1
     8     4    27    1
     9     4    28    1
    10     5     9    1
    11     5     6    2
    12     6     7    1
    13     7     8    1
    14     7    29    1
    15     8     9    2
    16     9    30    1
    17    10    11    1
    18    10    31    1
    19    11    24    1
    20    11    12    1
    21    11    32    1
    22    12    13    1
    23    12    33    1
    24    12    34    1
    25    13    14    1
    26    13    24    1
    27    13    35    1
    28    14    15    1
    29    14    36    1
    30    14    37    1
    31    15    16   am
    32    15    38    1
    33    16    17    2
    34    16    18    1
    35    18    23    1
    36    18    19    1
    37    18    20    1
    38    20    21    1
    39    20    39    1
    40    20    40    1
    41    21    22    1
    42    21    41    1
    43    21    42    1
    44    22    23    1
    45    23    43    1
    46    23    44    1
    47    24    45    1
    48    24    46    1
@<TRIPOS>SUBSTRUCTURE
     1 ZINC001411334959        1 TEMP              0 ****  ****    0 ROOT


##########                                Name:    ZINC000482540246
##########                DOCK_Rotatable_Bonds:                  10
##########                         Heavy_Atoms:                  30
##########                    Molecular_Weight:              409.46
##########                DOCK_Rotatable_Bonds:                  10
##########                       Formal_Charge:         2.83122e-07
##########                     HBond_Acceptors:                   7
##########                        HBond_Donors:                   2
##########                         Heavy_Atoms:                  30
##########                          Grid_Score:          -32.389957
##########                     Grid_vdw_energy:          -31.307333
##########                      Grid_es_energy:           -1.082624
##########           Internal_energy_repulsive:            9.765907

@<TRIPOS>MOLECULE
ZINC000482540246
 54 56 1 0 0
SMALL
USER_CHARGES


@<TRIPOS>ATOM
      1 C1         -1.0916    3.1504   58.0136 C.3     1  ZINC000482540246    0.0400
      2 O2         -2.4646    2.9189   57.6919 O.3     1  ZINC000482540246   -0.3100
      3 C3         -3.3894    3.6071   58.4073 C.ar    1  ZINC000482540246    0.3300
      4 C4         -4.7403    3.4198   58.1455 C.ar    1  ZINC000482540246   -0.1800
      5 C5         -5.6738    4.1280   58.8825 C.ar    1  ZINC000482540246   -0.0100
      6 C6         -7.1491    3.9529   58.6295 C.3     1  ZINC000482540246    0.2000
      7 H7         -7.3032    3.1270   57.9353 H       1  ZINC000482540246    0.1000
      8 C8         -7.7194    5.2386   58.0272 C.3     1  ZINC000482540246   -0.1600
      9 N9         -7.8300    3.6619   59.8936 N.am    1  ZINC000482540246   -0.7400
     10 C10        -8.1321    2.3894   60.2189 C.2     1  ZINC000482540246    0.7100
     11 O11        -7.8409    1.4830   59.4625 O.2     1  ZINC000482540246   -0.5800
     12 N12        -8.7570    2.1214   61.3826 N.am    1  ZINC000482540246   -0.7400
     13 C13        -9.0838    0.7380   61.7369 C.3     1  ZINC000482540246    0.2100
     14 H14        -8.2257    0.0980   61.5320 H       1  ZINC000482540246    0.1200
     15 C15       -10.2804    0.2681   60.9072 C.3     1  ZINC000482540246    0.0500
     16 O16       -10.1980   -1.1448   60.7101 O.3     1  ZINC000482540246   -0.3000
     17 C17       -11.0054   -1.6833   59.7580 C.ar    1  ZINC000482540246    0.1000
     18 C18       -10.4689   -2.1120   58.5539 C.ar    1  ZINC000482540246   -0.1800
     19 C19       -11.2916   -2.6598   57.5876 C.ar    1  ZINC000482540246   -0.0900
     20 C20       -12.6487   -2.7808   57.8200 C.ar    1  ZINC000482540246   -0.1300
     21 C21       -13.1882   -2.3539   59.0198 C.ar    1  ZINC000482540246   -0.1200
     22 C22       -12.3691   -1.8104   59.9925 C.ar    1  ZINC000482540246    0.0700
     23 F23       -12.8957   -1.3934   61.1646 F       1  ZINC000482540246   -0.1300
     24 C24        -9.4281    0.6627   63.2022 C.ar    1  ZINC000482540246   -0.1000
     25 C25       -10.3453    1.5444   63.7429 C.ar    1  ZINC000482540246   -0.0800
     26 C26       -10.6610    1.4752   65.0869 C.ar    1  ZINC000482540246   -0.1200
     27 C27       -10.0599    0.5242   65.8902 C.ar    1  ZINC000482540246   -0.1200
     28 C28        -9.1435   -0.3580   65.3492 C.ar    1  ZINC000482540246   -0.1200
     29 C29        -8.8309   -0.2917   64.0042 C.ar    1  ZINC000482540246   -0.1000
     30 C30        -5.2201    5.0026   59.8597 C.ar    1  ZINC000482540246   -0.2100
     31 C31        -3.8615    5.1392   60.0662 C.ar    1  ZINC000482540246    0.1500
     32 N32        -2.9959    4.4462   59.3512 N.ar    1  ZINC000482540246   -0.5400
     33 H33        -0.4594    2.5395   57.3694 H       1  ZINC000482540246    0.1000
     34 H34        -0.8554    4.2036   57.8614 H       1  ZINC000482540246    0.0600
     35 H35        -0.9129    2.8849   59.0556 H       1  ZINC000482540246    0.0600
     36 H36        -5.0584    2.7309   57.3768 H       1  ZINC000482540246    0.1500
     37 H37        -7.5653    6.0646   58.7215 H       1  ZINC000482540246    0.0600
     38 H38        -7.2127    5.4551   57.0867 H       1  ZINC000482540246    0.0700
     39 H39        -8.7865    5.1119   57.8444 H       1  ZINC000482540246    0.0700
     40 H40        -8.0633    4.3851   60.4965 H       1  ZINC000482540246    0.4000
     41 H41        -8.9904    2.8446   61.9855 H       1  ZINC000482540246    0.4000
     42 H42       -11.2042    0.5084   61.4335 H       1  ZINC000482540246    0.0800
     43 H43       -10.2718    0.7710   59.9401 H       1  ZINC000482540246    0.0800
     44 H44        -9.4087   -2.0178   58.3708 H       1  ZINC000482540246    0.1400
     45 H45       -10.8733   -2.9933   56.6493 H       1  ZINC000482540246    0.1300
     46 H46       -13.2890   -3.2091   57.0631 H       1  ZINC000482540246    0.1400
     47 H47       -14.2490   -2.4492   59.1988 H       1  ZINC000482540246    0.1400
     48 H48       -10.8149    2.2874   63.1153 H       1  ZINC000482540246    0.1200
     49 H49       -11.3771    2.1646   65.5095 H       1  ZINC000482540246    0.1200
     50 H50       -10.3062    0.4707   66.9403 H       1  ZINC000482540246    0.1200
     51 H51        -8.6736   -1.1008   65.9768 H       1  ZINC000482540246    0.1200
     52 H52        -8.1149   -0.9810   63.5816 H       1  ZINC000482540246    0.1200
     53 H53        -5.9220    5.5706   60.4523 H       1  ZINC000482540246    0.1400
     54 H54        -3.5032    5.8184   60.8255 H       1  ZINC000482540246    0.1600
@<TRIPOS>BOND
     1     1     2    1
     2     1    33    1
     3     1    34    1
     4     1    35    1
     5     2     3    1
     6     3    32   ar
     7     3     4   ar
     8     4     5   ar
     9     4    36    1
    10     5     6    1
    11     5    30   ar
    12     6     7    1
    13     6     8    1
    14     6     9    1
    15     8    37    1
    16     8    38    1
    17     8    39    1
    18     9    10   am
    19     9    40    1
    20    10    11    2
    21    10    12   am
    22    12    13    1
    23    12    41    1
    24    13    14    1
    25    13    15    1
    26    13    24    1
    27    15    16    1
    28    15    42    1
    29    15    43    1
    30    16    17    1
    31    17    22   ar
    32    17    18   ar
    33    18    19   ar
    34    18    44    1
    35    19    20   ar
    36    19    45    1
    37    20    21   ar
    38    20    46    1
    39    21    22   ar
    40    21    47    1
    41    22    23    1
    42    24    29   ar
    43    24    25   ar
    44    25    26   ar
    45    25    48    1
    46    26    27   ar
    47    26    49    1
    48    27    28   ar
    49    27    50    1
    50    28    29   ar
    51    28    51    1
    52    29    52    1
    53    30    31   ar
    54    30    53    1
    55    31    32   ar
    56    31    54    1
@<TRIPOS>SUBSTRUCTURE
     1 ZINC000482540246        1 TEMP              0 ****  ****    0 ROOT


##########                                Name:    ZINC001181473921
##########                DOCK_Rotatable_Bonds:                   9
##########                         Heavy_Atoms:                  24
##########                    Molecular_Weight:             357.431
##########                DOCK_Rotatable_Bonds:                   9
##########                       Formal_Charge:        -5.96046e-08
##########                     HBond_Acceptors:                   9
##########                        HBond_Donors:                   4
##########                         Heavy_Atoms:                  24
##########                          Grid_Score:          -32.375496
##########                     Grid_vdw_energy:          -28.258148
##########                      Grid_es_energy:           -4.117346
##########           Internal_energy_repulsive:           13.600060

@<TRIPOS>MOLECULE
ZINC001181473921
 47 48 1 0 0
SMALL
USER_CHARGES


@<TRIPOS>ATOM
      1 C1         -7.1250    3.6684   56.5394 C.3     1  ZINC001181473921   -0.1300
      2 C2         -7.7320    2.4714   55.8541 C.2     1  ZINC001181473921    0.1900
      3 C3         -7.3823    2.1835   54.5822 C.2     1  ZINC001181473921   -0.2400
      4 C4         -7.9463    1.0651   53.9365 C.2     1  ZINC001181473921    0.2500
      5 O5         -7.6052    0.7630   52.6609 O.3     1  ZINC001181473921   -0.4600
      6 C6         -8.8529    0.2808   54.6253 C.2     1  ZINC001181473921   -0.3700
      7 C7         -9.1841    0.6194   55.9425 C.2     1  ZINC001181473921    0.5300
      8 O8         -9.9828   -0.0634   56.5646 O.2     1  ZINC001181473921   -0.5500
      9 N9         -8.6199    1.6928   56.5265 N.am    1  ZINC001181473921   -0.5000
     10 C10        -8.9769    2.0334   57.9060 C.3     1  ZINC001181473921    0.1000
     11 C11        -8.0812    1.2550   58.8716 C.3     1  ZINC001181473921   -0.1600
     12 C12        -8.8823    0.8460   60.0809 C.2     1  ZINC001181473921    0.5200
     13 O13        -9.2079   -0.3129   60.2290 O.2     1  ZINC001181473921   -0.5300
     14 N14        -9.2369    1.7680   60.9977 N.am    1  ZINC001181473921   -0.7200
     15 C15       -10.0141    1.3701   62.1742 C.3     1  ZINC001181473921    0.1400
     16 H16       -10.6809    0.5423   61.9327 H       1  ZINC001181473921    0.1000
     17 C17       -10.8126    2.5721   62.7368 C.3     1  ZINC001181473921   -0.1300
     18 C18       -11.0519    2.2078   64.2165 C.3     1  ZINC001181473921   -0.1500
     19 C19        -9.9488    1.2087   64.6073 C.3     1  ZINC001181473921   -0.0800
     20 H20       -10.3940    0.2621   64.9140 H       1  ZINC001181473921    0.0900
     21 C21        -9.1015    1.7818   65.7451 C.3     1  ZINC001181473921   -0.6200
     22 S22        -8.2212    0.4343   66.5815 S.o2    1  ZINC001181473921    2.6100
     23 N23        -7.1930   -0.1650   65.4301 N.am    1  ZINC001181473921   -1.2500
     24 O24        -7.3593    0.9501   67.5868 O.2     1  ZINC001181473921   -0.9600
     25 O25        -9.1053   -0.6434   66.8570 O.2     1  ZINC001181473921   -0.9600
     26 C26        -9.0776    0.9957   63.3497 C.3     1  ZINC001181473921   -0.1200
     27 H27        -6.6534    3.3537   57.4704 H       1  ZINC001181473921    0.0900
     28 H28        -6.3770    4.1196   55.8875 H       1  ZINC001181473921    0.1000
     29 H29        -7.9055    4.3978   56.7559 H       1  ZINC001181473921    0.0900
     30 H30        -6.6725    2.8088   54.0610 H       1  ZINC001181473921    0.1500
     31 H31        -7.7259    1.4928   52.0382 H       1  ZINC001181473921    0.4100
     32 H32        -9.2998   -0.5816   54.1532 H       1  ZINC001181473921    0.1500
     33 H33        -8.8380    3.1030   58.0637 H       1  ZINC001181473921    0.1000
     34 H34       -10.0196    1.7719   58.0866 H       1  ZINC001181473921    0.1100
     35 H35        -7.6962    0.3654   58.3731 H       1  ZINC001181473921    0.1100
     36 H36        -7.2488    1.8857   59.1837 H       1  ZINC001181473921    0.1000
     37 H37        -8.9775    2.6951   60.8787 H       1  ZINC001181473921    0.4000
     38 H38       -10.2276    3.4886   62.6593 H       1  ZINC001181473921    0.0700
     39 H39       -11.7618    2.6788   62.2119 H       1  ZINC001181473921    0.0800
     40 H40       -10.9831    3.1014   64.8369 H       1  ZINC001181473921    0.0900
     41 H41       -12.0324    1.7462   64.3336 H       1  ZINC001181473921    0.0800
     42 H42        -8.3797    2.4906   65.3391 H       1  ZINC001181473921    0.1400
     43 H43        -9.7488    2.2912   66.4590 H       1  ZINC001181473921    0.1400
     44 H44        -7.5486   -0.5272   64.6035 H       1  ZINC001181473921    0.4100
     45 H45        -6.2350   -0.1539   65.5821 H       1  ZINC001181473921    0.4200
     46 H46        -8.7620   -0.0450   63.2760 H       1  ZINC001181473921    0.0800
     47 H47        -8.2117    1.6575   63.3690 H       1  ZINC001181473921    0.0800
@<TRIPOS>BOND
     1     1     2    1
     2     1    27    1
     3     1    28    1
     4     1    29    1
     5     2     9    1
     6     2     3    2
     7     3     4    1
     8     3    30    1
     9     4     5    1
    10     4     6    2
    11     5    31    1
    12     6     7    1
    13     6    32    1
    14     7     8    2
    15     7     9   am
    16     9    10    1
    17    10    11    1
    18    10    33    1
    19    10    34    1
    20    11    12    1
    21    11    35    1
    22    11    36    1
    23    12    13    2
    24    12    14   am
    25    14    15    1
    26    14    37    1
    27    15    16    1
    28    15    26    1
    29    15    17    1
    30    17    18    1
    31    17    38    1
    32    17    39    1
    33    18    19    1
    34    18    40    1
    35    18    41    1
    36    19    20    1
    37    19    21    1
    38    19    26    1
    39    21    22    1
    40    21    42    1
    41    21    43    1
    42    22    23   am
    43    22    24    2
    44    22    25    2
    45    23    44    1
    46    23    45    1
    47    26    46    1
    48    26    47    1
@<TRIPOS>SUBSTRUCTURE
     1 ZINC001181473921        1 TEMP              0 ****  ****    0 ROOT


##########                                Name:    ZINC000460972051
##########                DOCK_Rotatable_Bonds:                  10
##########                         Heavy_Atoms:                  29
##########                    Molecular_Weight:             417.572
##########                DOCK_Rotatable_Bonds:                  10
##########                       Formal_Charge:         3.31551e-07
##########                     HBond_Acceptors:                   7
##########                        HBond_Donors:                   2
##########                         Heavy_Atoms:                  29
##########                          Grid_Score:          -32.349293
##########                     Grid_vdw_energy:          -30.111893
##########                      Grid_es_energy:           -2.237400
##########           Internal_energy_repulsive:           30.018835

@<TRIPOS>MOLECULE
ZINC000460972051
 60 61 1 0 0
SMALL
USER_CHARGES


@<TRIPOS>ATOM
      1 C1         -3.1528    4.0076   58.1277 C.3     1  ZINC000460972051   -0.1800
      2 C2         -2.1481    2.9418   57.6855 C.3     1  ZINC000460972051    0.1000
      3 N3         -0.8535    3.5727   57.4167 N.am    1  ZINC000460972051   -0.6200
      4 C4         -0.5425    3.9667   56.1659 C.2     1  ZINC000460972051    0.7100
      5 O5          0.5325    4.4890   55.9426 O.2     1  ZINC000460972051   -0.5800
      6 N6         -1.4233    3.7817   55.1626 N.am    1  ZINC000460972051   -0.7400
      7 C7         -1.0846    4.2083   53.8026 C.3     1  ZINC000460972051    0.2000
      8 H8         -0.4691    5.1069   53.8464 H       1  ZINC000460972051    0.1100
      9 C9         -0.3103    3.0937   53.0963 C.3     1  ZINC000460972051    0.1100
     10 N10         1.1265    3.3661   53.1838 N.am    1  ZINC000460972051   -1.1200
     11 S11         2.0095    3.6052   51.8035 S.o2    1  ZINC000460972051    2.7000
     12 O12         1.3485    4.6321   51.0771 O.2     1  ZINC000460972051   -0.9500
     13 O13         3.3694    3.6905   52.2068 O.2     1  ZINC000460972051   -0.9600
     14 C14         1.8691    2.1405   50.8341 C.ar    1  ZINC000460972051   -0.6900
     15 C15         1.3878    0.9775   51.4049 C.ar    1  ZINC000460972051   -0.0100
     16 C16         1.2777   -0.1717   50.6442 C.ar    1  ZINC000460972051   -0.1500
     17 C17         1.6484   -0.1574   49.3128 C.ar    1  ZINC000460972051   -0.0200
     18 C18         1.5288   -1.4102   48.4838 C.3     1  ZINC000460972051   -0.1300
     19 C19         2.1285    1.0064   48.7414 C.ar    1  ZINC000460972051   -0.1500
     20 C20         2.2350    2.1563   49.5009 C.ar    1  ZINC000460972051    0.0300
     21 C21         2.7583    3.4249   48.8781 C.3     1  ZINC000460972051   -0.1700
     22 C22        -2.3499    4.5029   53.0388 C.ar    1  ZINC000460972051   -0.1000
     23 C23        -3.3299    3.5347   52.9252 C.ar    1  ZINC000460972051   -0.1000
     24 C24        -4.4906    3.8049   52.2246 C.ar    1  ZINC000460972051   -0.1200
     25 C25        -4.6714    5.0435   51.6380 C.ar    1  ZINC000460972051   -0.1200
     26 C26        -3.6917    6.0120   51.7524 C.ar    1  ZINC000460972051   -0.1200
     27 C27        -2.5329    5.7432   52.4567 C.ar    1  ZINC000460972051   -0.1000
     28 C28         0.1031    3.7754   58.5076 C.3     1  ZINC000460972051    0.1500
     29 C29         0.0129    5.2201   59.0032 C.3     1  ZINC000460972051   -0.1600
     30 C30        -0.2243    2.8204   59.6572 C.3     1  ZINC000460972051   -0.1600
     31 H31        -4.1159    3.5381   58.3278 H       1  ZINC000460972051    0.0700
     32 H32        -2.7908    4.4944   59.0333 H       1  ZINC000460972051    0.0600
     33 H33        -3.2671    4.7493   57.3373 H       1  ZINC000460972051    0.0700
     34 H34        -2.0336    2.2000   58.4759 H       1  ZINC000460972051    0.0700
     35 H35        -2.5100    2.4548   56.7798 H       1  ZINC000460972051    0.0900
     36 H36        -2.2814    3.3661   55.3410 H       1  ZINC000460972051    0.4000
     37 H37        -0.5291    2.1394   53.5755 H       1  ZINC000460972051    0.0900
     38 H38        -0.6090    3.0513   52.0489 H       1  ZINC000460972051    0.0900
     39 H39         1.5606    3.4064   54.0504 H       1  ZINC000460972051    0.4200
     40 H40         1.0982    0.9663   52.4453 H       1  ZINC000460972051    0.1400
     41 H41         0.9023   -1.0808   51.0905 H       1  ZINC000460972051    0.1300
     42 H42         0.5428   -1.4464   48.0203 H       1  ZINC000460972051    0.0800
     43 H43         2.2949   -1.4073   47.7085 H       1  ZINC000460972051    0.0700
     44 H44         1.6621   -2.2829   49.1230 H       1  ZINC000460972051    0.0700
     45 H45         2.4178    1.0178   47.7010 H       1  ZINC000460972051    0.1300
     46 H46         1.9209    4.0452   48.5590 H       1  ZINC000460972051    0.0900
     47 H47         3.3558    3.9692   49.6095 H       1  ZINC000460972051    0.1000
     48 H48         3.3769    3.1778   48.0152 H       1  ZINC000460972051    0.0900
     49 H49        -3.1887    2.5670   53.3835 H       1  ZINC000460972051    0.1200
     50 H50        -5.2559    3.0481   52.1352 H       1  ZINC000460972051    0.1200
     51 H51        -5.5778    5.2544   51.0900 H       1  ZINC000460972051    0.1200
     52 H52        -3.8328    6.9796   51.2939 H       1  ZINC000460972051    0.1200
     53 H53        -1.7676    6.5000   52.5460 H       1  ZINC000460972051    0.1200
     54 H54         1.1126    3.5774   58.1471 H       1  ZINC000460972051    0.1000
     55 H55         0.2462    5.9005   58.1843 H       1  ZINC000460972051    0.0600
     56 H56        -0.9965    5.4182   59.3637 H       1  ZINC000460972051    0.0600
     57 H57         0.7246    5.3709   59.8149 H       1  ZINC000460972051    0.0700
     58 H58        -0.1601    1.7912   59.3041 H       1  ZINC000460972051    0.0600
     59 H59         0.4874    2.9712   60.4688 H       1  ZINC000460972051    0.0700
     60 H60        -1.2338    3.0185   60.0177 H       1  ZINC000460972051    0.0600
@<TRIPOS>BOND
     1     1     2    1
     2     1    31    1
     3     1    32    1
     4     1    33    1
     5     2     3    1
     6     2    34    1
     7     2    35    1
     8     3     4   am
     9     3    28    1
    10     4     5    2
    11     4     6   am
    12     6     7    1
    13     6    36    1
    14     7     8    1
    15     7     9    1
    16     7    22    1
    17     9    10    1
    18     9    37    1
    19     9    38    1
    20    10    11   am
    21    10    39    1
    22    11    12    2
    23    11    13    2
    24    11    14    1
    25    14    20   ar
    26    14    15   ar
    27    15    16   ar
    28    15    40    1
    29    16    17   ar
    30    16    41    1
    31    17    18    1
    32    17    19   ar
    33    18    42    1
    34    18    43    1
    35    18    44    1
    36    19    20   ar
    37    19    45    1
    38    20    21    1
    39    21    46    1
    40    21    47    1
    41    21    48    1
    42    22    27   ar
    43    22    23   ar
    44    23    24   ar
    45    23    49    1
    46    24    25   ar
    47    24    50    1
    48    25    26   ar
    49    25    51    1
    50    26    27   ar
    51    26    52    1
    52    27    53    1
    53    28    29    1
    54    28    30    1
    55    28    54    1
    56    29    55    1
    57    29    56    1
    58    29    57    1
    59    30    58    1
    60    30    59    1
    61    30    60    1
@<TRIPOS>SUBSTRUCTURE
     1 ZINC000460972051        1 TEMP              0 ****  ****    0 ROOT


##########                                Name:    ZINC000050607728
##########                DOCK_Rotatable_Bonds:                  10
##########                         Heavy_Atoms:                  31
##########                    Molecular_Weight:             416.476
##########                DOCK_Rotatable_Bonds:                  10
##########                       Formal_Charge:          -0.0199995
##########                     HBond_Acceptors:                   6
##########                        HBond_Donors:                   1
##########                         Heavy_Atoms:                  31
##########                          Grid_Score:          -32.344814
##########                     Grid_vdw_energy:          -32.752796
##########                      Grid_es_energy:            0.407982
##########           Internal_energy_repulsive:           14.170929

@<TRIPOS>MOLECULE
ZINC000050607728
 55 57 1 0 0
SMALL
USER_CHARGES


@<TRIPOS>ATOM
      1 C1        -11.5552   -0.4993   61.0471 C.3     1  ZINC000050607728    0.0800
      2 N2        -10.1372   -0.8153   61.2364 N.am    1  ZINC000050607728   -0.6200
      3 C3         -9.4787   -0.4954   62.5053 C.3     1  ZINC000050607728    0.0700
      4 C4         -9.4387   -1.4002   60.2433 C.2     1  ZINC000050607728    0.5600
      5 O5         -8.2622   -1.6623   60.4004 O.2     1  ZINC000050607728   -0.5300
      6 C6        -10.1032   -1.7230   58.9628 C.ar    1  ZINC000050607728   -0.1400
      7 C7        -10.7892   -2.9293   58.8136 C.ar    1  ZINC000050607728   -0.0800
      8 C8        -11.4077   -3.2242   57.6161 C.ar    1  ZINC000050607728   -0.1300
      9 C9        -11.3485   -2.3276   56.5643 C.ar    1  ZINC000050607728   -0.0700
     10 C10       -10.6696   -1.1301   56.7053 C.ar    1  ZINC000050607728   -0.1100
     11 C11       -10.6098   -0.1595   55.5540 C.3     1  ZINC000050607728    0.1100
     12 O12       -10.3435   -0.8835   54.3239 O.3     1  ZINC000050607728   -0.3400
     13 C13        -9.6734   -0.2274   53.3636 C.2     1  ZINC000050607728    0.4700
     14 O14        -8.7332   -0.7530   52.8161 O.2     1  ZINC000050607728   -0.5000
     15 C15       -10.0937    1.1647   52.9682 C.3     1  ZINC000050607728    0.2000
     16 H16       -10.3272    1.7417   53.8630 H       1  ZINC000050607728    0.1400
     17 N17        -9.0026    1.8155   52.2385 N.am    1  ZINC000050607728   -0.7100
     18 C18        -7.9559    2.3327   52.9118 C.2     1  ZINC000050607728    0.5700
     19 O19        -7.9163    2.2578   54.1243 O.2     1  ZINC000050607728   -0.5200
     20 C20        -6.8557    2.9909   52.1755 C.ar    1  ZINC000050607728   -0.1400
     21 C21        -5.6026    3.1383   52.7723 C.ar    1  ZINC000050607728   -0.0800
     22 C22        -4.5801    3.7531   52.0795 C.ar    1  ZINC000050607728   -0.1300
     23 C23        -4.7948    4.2233   50.7962 C.ar    1  ZINC000050607728   -0.0900
     24 C24        -6.0348    4.0808   50.1990 C.ar    1  ZINC000050607728   -0.1300
     25 C25        -7.0640    3.4624   50.8784 C.ar    1  ZINC000050607728   -0.0600
     26 C26       -11.3134    1.0899   52.0863 C.ar    1  ZINC000050607728   -0.1000
     27 C27       -11.5598   -0.0490   51.3428 C.ar    1  ZINC000050607728   -0.1000
     28 C28       -12.6787   -0.1177   50.5339 C.ar    1  ZINC000050607728   -0.1200
     29 C29       -13.5512    0.9525   50.4687 C.ar    1  ZINC000050607728   -0.1100
     30 C30       -13.3052    2.0912   51.2129 C.ar    1  ZINC000050607728   -0.1200
     31 C31       -12.1886    2.1582   52.0252 C.ar    1  ZINC000050607728   -0.0800
     32 C32       -10.0522   -0.8203   57.8993 C.ar    1  ZINC000050607728   -0.0400
     33 H33       -11.6517    0.5049   60.6342 H       1  ZINC000050607728    0.0600
     34 H34       -11.9991   -1.2191   60.3592 H       1  ZINC000050607728    0.0800
     35 H35       -12.0698   -0.5486   62.0066 H       1  ZINC000050607728    0.0700
     36 H36        -9.6432   -1.3065   63.2147 H       1  ZINC000050607728    0.0600
     37 H37        -8.4088   -0.3704   62.3381 H       1  ZINC000050607728    0.0800
     38 H38        -9.8939    0.4288   62.9074 H       1  ZINC000050607728    0.0700
     39 H39       -10.8355   -3.6304   59.6339 H       1  ZINC000050607728    0.1400
     40 H40       -11.9389   -4.1573   57.4994 H       1  ZINC000050607728    0.1400
     41 H41       -11.8339   -2.5635   55.6288 H       1  ZINC000050607728    0.1300
     42 H42       -11.5628    0.3628   55.4692 H       1  ZINC000050607728    0.0900
     43 H43        -9.8135    0.5638   55.7296 H       1  ZINC000050607728    0.0900
     44 H44        -9.0337    1.8742   51.2708 H       1  ZINC000050607728    0.4100
     45 H45        -5.4339    2.7723   53.7742 H       1  ZINC000050607728    0.1300
     46 H46        -3.6100    3.8677   52.5401 H       1  ZINC000050607728    0.1300
     47 H47        -3.9912    4.7041   50.2582 H       1  ZINC000050607728    0.1300
     48 H48        -6.1960    4.4504   49.1971 H       1  ZINC000050607728    0.1300
     49 H49        -8.0313    3.3515   50.4110 H       1  ZINC000050607728    0.1400
     50 H50       -10.8782   -0.8852   51.3937 H       1  ZINC000050607728    0.1200
     51 H51       -12.8710   -1.0073   49.9525 H       1  ZINC000050607728    0.1200
     52 H52       -14.4249    0.8991   49.8362 H       1  ZINC000050607728    0.1200
     53 H53       -13.9867    2.9275   51.1618 H       1  ZINC000050607728    0.1300
     54 H54       -11.9964    3.0477   52.6065 H       1  ZINC000050607728    0.1300
     55 H55        -9.5230    0.1149   58.0082 H       1  ZINC000050607728    0.1300
@<TRIPOS>BOND
     1     1     2    1
     2     1    33    1
     3     1    34    1
     4     1    35    1
     5     2     3    1
     6     2     4   am
     7     3    36    1
     8     3    37    1
     9     3    38    1
    10     4     5    2
    11     4     6    1
    12     6    32   ar
    13     6     7   ar
    14     7     8   ar
    15     7    39    1
    16     8     9   ar
    17     8    40    1
    18     9    10   ar
    19     9    41    1
    20    10    11    1
    21    10    32   ar
    22    11    12    1
    23    11    42    1
    24    11    43    1
    25    12    13    1
    26    13    14    2
    27    13    15    1
    28    15    16    1
    29    15    17    1
    30    15    26    1
    31    17    18   am
    32    17    44    1
    33    18    19    2
    34    18    20    1
    35    20    25   ar
    36    20    21   ar
    37    21    22   ar
    38    21    45    1
    39    22    23   ar
    40    22    46    1
    41    23    24   ar
    42    23    47    1
    43    24    25   ar
    44    24    48    1
    45    25    49    1
    46    26    31   ar
    47    26    27   ar
    48    27    28   ar
    49    27    50    1
    50    28    29   ar
    51    28    51    1
    52    29    30   ar
    53    29    52    1
    54    30    31   ar
    55    30    53    1
    56    31    54    1
    57    32    55    1
@<TRIPOS>SUBSTRUCTURE
     1 ZINC000050607728        1 TEMP              0 ****  ****    0 ROOT


##########                                Name:    ZINC000532153088
##########                DOCK_Rotatable_Bonds:                  11
##########                         Heavy_Atoms:                  29
##########                    Molecular_Weight:             402.484
##########                DOCK_Rotatable_Bonds:                  11
##########                       Formal_Charge:          -0.0200009
##########                     HBond_Acceptors:                   6
##########                        HBond_Donors:                   1
##########                         Heavy_Atoms:                  29
##########                          Grid_Score:          -32.331593
##########                     Grid_vdw_energy:          -31.382891
##########                      Grid_es_energy:           -0.948700
##########           Internal_energy_repulsive:           24.160198

@<TRIPOS>MOLECULE
ZINC000532153088
 57 59 1 0 0
SMALL
USER_CHARGES


@<TRIPOS>ATOM
      1 C1         -9.2090    5.1125   49.0516 C.3     1  ZINC000532153088   -0.1800
      2 C2         -8.8056    6.2865   49.9460 C.3     1  ZINC000532153088    0.0800
      3 C3         -9.9930    6.6926   50.8211 C.3     1  ZINC000532153088   -0.1500
      4 O4         -7.7114    5.8970   50.7785 O.3     1  ZINC000532153088   -0.3800
      5 C5         -6.5450    5.4970   50.0560 C.3     1  ZINC000532153088    0.1000
      6 C6         -5.4685    5.0868   51.0277 C.ar    1  ZINC000532153088   -0.0700
      7 C7         -4.3385    5.8683   51.1775 C.ar    1  ZINC000532153088   -0.1000
      8 C8         -3.3509    5.4919   52.0689 C.ar    1  ZINC000532153088   -0.1100
      9 C9         -3.4940    4.3345   52.8106 C.ar    1  ZINC000532153088   -0.1200
     10 C10        -4.6249    3.5532   52.6614 C.ar    1  ZINC000532153088   -0.1000
     11 C11        -5.6141    3.9317   51.7734 C.ar    1  ZINC000532153088   -0.1100
     12 C12        -6.8468    3.0802   51.6108 C.3     1  ZINC000532153088    0.1600
     13 N13        -6.7891    1.9538   52.5458 N.am    1  ZINC000532153088   -0.7300
     14 C14        -7.3912    2.0444   53.7481 C.2     1  ZINC000532153088    0.5100
     15 O15        -7.9796    3.0590   54.0566 O.2     1  ZINC000532153088   -0.5000
     16 C16        -7.3334    0.8850   54.7091 C.3     1  ZINC000532153088    0.0300
     17 N17        -8.5883    0.1249   54.6355 N.3     1  ZINC000532153088   -0.4800
     18 C18        -9.6149    0.7186   55.5024 C.3     1  ZINC000532153088    0.1000
     19 C19        -9.6292    0.0016   56.8278 C.ar    1  ZINC000532153088   -0.1300
     20 C20        -8.9709    0.5453   57.9143 C.ar    1  ZINC000532153088   -0.0600
     21 C21        -8.9835   -0.1110   59.1308 C.ar    1  ZINC000532153088   -0.1700
     22 C22        -9.6559   -1.3141   59.2619 C.ar    1  ZINC000532153088    0.1300
     23 F23        -9.6685   -1.9551   60.4512 F       1  ZINC000532153088   -0.1300
     24 C24       -10.3158   -1.8598   58.1741 C.ar    1  ZINC000532153088   -0.2000
     25 C25       -10.3069   -1.1992   56.9580 C.ar    1  ZINC000532153088    0.1600
     26 F26       -10.9504   -1.7305   55.8956 F       1  ZINC000532153088   -0.1100
     27 C27        -9.0632    0.0258   53.2489 C.3     1  ZINC000532153088    0.0200
     28 C28        -8.3596   -0.9760   52.3312 C.3     1  ZINC000532153088   -0.2200
     29 C29        -9.7746   -1.2644   52.8364 C.3     1  ZINC000532153088   -0.1700
     30 H30       -10.0436    5.4096   48.4166 H       1  ZINC000532153088    0.0700
     31 H31        -8.3630    4.8233   48.4281 H       1  ZINC000532153088    0.0600
     32 H32        -9.5078    4.2683   49.6731 H       1  ZINC000532153088    0.0700
     33 H33        -8.5067    7.1308   49.3245 H       1  ZINC000532153088    0.0600
     34 H34       -10.2918    5.8483   51.4426 H       1  ZINC000532153088    0.0600
     35 H35        -9.7055    7.5289   51.4583 H       1  ZINC000532153088    0.0600
     36 H36       -10.8276    6.9896   50.1862 H       1  ZINC000532153088    0.0700
     37 H37        -6.7898    4.6553   49.4082 H       1  ZINC000532153088    0.0600
     38 H38        -6.1893    6.3304   49.4502 H       1  ZINC000532153088    0.0600
     39 H39        -4.2267    6.7727   50.5979 H       1  ZINC000532153088    0.1300
     40 H40        -2.4675    6.1022   52.1854 H       1  ZINC000532153088    0.1200
     41 H41        -2.7223    4.0401   53.5065 H       1  ZINC000532153088    0.1300
     42 H42        -4.7366    2.6486   53.2407 H       1  ZINC000532153088    0.1300
     43 H43        -7.7328    3.6801   51.8190 H       1  ZINC000532153088    0.0800
     44 H44        -6.8954    2.7024   50.5896 H       1  ZINC000532153088    0.0800
     45 H45        -6.3175    1.1427   52.2994 H       1  ZINC000532153088    0.4000
     46 H46        -6.4991    0.2353   54.4448 H       1  ZINC000532153088    0.0700
     47 H47        -7.1947    1.2601   55.7231 H       1  ZINC000532153088    0.1100
     48 H48        -9.3901    1.7731   55.6623 H       1  ZINC000532153088    0.0900
     49 H49       -10.5913    0.6232   55.0272 H       1  ZINC000532153088    0.0500
     50 H50        -8.4457    1.4836   57.8129 H       1  ZINC000532153088    0.1400
     51 H51        -8.4683    0.3147   59.9792 H       1  ZINC000532153088    0.1400
     52 H52       -10.8406   -2.7983   58.2755 H       1  ZINC000532153088    0.1500
     53 H53        -9.4124    0.9574   52.8039 H       1  ZINC000532153088    0.1200
     54 H54        -8.2456   -0.7034   51.2819 H       1  ZINC000532153088    0.1000
     55 H55        -7.5442   -1.5614   52.7563 H       1  ZINC000532153088    0.1000
     56 H56        -9.8902   -2.0397   53.5939 H       1  ZINC000532153088    0.1000
     57 H57       -10.5916   -1.1816   52.1196 H       1  ZINC000532153088    0.1000
@<TRIPOS>BOND
     1     1     2    1
     2     1    30    1
     3     1    31    1
     4     1    32    1
     5     2     3    1
     6     2     4    1
     7     2    33    1
     8     3    34    1
     9     3    35    1
    10     3    36    1
    11     4     5    1
    12     5     6    1
    13     5    37    1
    14     5    38    1
    15     6    11   ar
    16     6     7   ar
    17     7     8   ar
    18     7    39    1
    19     8     9   ar
    20     8    40    1
    21     9    10   ar
    22     9    41    1
    23    10    11   ar
    24    10    42    1
    25    11    12    1
    26    12    13    1
    27    12    43    1
    28    12    44    1
    29    13    14   am
    30    13    45    1
    31    14    15    2
    32    14    16    1
    33    16    17    1
    34    16    46    1
    35    16    47    1
    36    17    18    1
    37    17    27    1
    38    18    19    1
    39    18    48    1
    40    18    49    1
    41    19    25   ar
    42    19    20   ar
    43    20    21   ar
    44    20    50    1
    45    21    22   ar
    46    21    51    1
    47    22    23    1
    48    22    24   ar
    49    24    25   ar
    50    24    52    1
    51    25    26    1
    52    27    29    1
    53    27    28    1
    54    27    53    1
    55    28    29    1
    56    28    54    1
    57    28    55    1
    58    29    56    1
    59    29    57    1
@<TRIPOS>SUBSTRUCTURE
     1 ZINC000532153088        1 TEMP              0 ****  ****    0 ROOT


##########                                Name:    ZINC000963156778
##########                DOCK_Rotatable_Bonds:                   6
##########                         Heavy_Atoms:                  24
##########                    Molecular_Weight:             349.414
##########                DOCK_Rotatable_Bonds:                   6
##########                       Formal_Charge:         -0.00999984
##########                     HBond_Acceptors:                   9
##########                        HBond_Donors:                   2
##########                         Heavy_Atoms:                  24
##########                          Grid_Score:          -32.328049
##########                     Grid_vdw_energy:          -30.016312
##########                      Grid_es_energy:           -2.311735
##########           Internal_energy_repulsive:            7.371954

@<TRIPOS>MOLECULE
ZINC000963156778
 43 46 1 0 0
SMALL
USER_CHARGES


@<TRIPOS>ATOM
      1 C1        -10.0274   -0.9600   53.0016 C.3     1  ZINC000963156778   -0.0800
      2 C2         -8.9142   -0.0075   53.3548 C.2     1  ZINC000963156778    0.0300
      3 C3         -8.7512    0.5365   54.5833 C.2     1  ZINC000963156778   -0.2600
      4 C4         -9.5997    0.3241   55.8105 C.3     1  ZINC000963156778    0.1300
      5 N5         -8.7750    0.5031   57.0129 N.3     1  ZINC000963156778   -0.5000
      6 C6         -9.3462   -0.2395   58.1657 C.3     1  ZINC000963156778    0.0600
      7 C7         -8.7394    0.4456   59.4090 C.3     1  ZINC000963156778   -0.1700
      8 H8         -8.0729   -0.1460   60.0367 H       1  ZINC000963156778    0.1200
      9 C9         -8.3659    1.8671   58.9411 C.3     1  ZINC000963156778   -0.1700
     10 H10        -7.4276    2.3395   59.2321 H       1  ZINC000963156778    0.1200
     11 C11        -8.7786    1.9215   57.4544 C.3     1  ZINC000963156778    0.0600
     12 C12        -9.4876    1.6346   60.0149 C.3     1  ZINC000963156778    0.1200
     13 H13       -10.5204    1.7946   59.7051 H       1  ZINC000963156778    0.1400
     14 N14        -9.1811    1.9968   61.4009 N.am    1  ZINC000963156778   -0.7000
     15 C15        -9.9968    1.5992   62.3974 C.2     1  ZINC000963156778    0.5100
     16 O16       -10.9838    0.9404   62.1468 O.2     1  ZINC000963156778   -0.5000
     17 C17        -9.6825    1.9733   63.8230 C.3     1  ZINC000963156778   -0.1300
     18 C18        -9.3287    0.7129   64.6148 C.3     1  ZINC000963156778   -0.1100
     19 H19       -10.1158   -0.0347   64.5154 H       1  ZINC000963156778    0.1300
     20 C20        -9.0886    1.0541   66.0996 C.3     1  ZINC000963156778   -0.1600
     21 C21        -7.6478    0.6522   66.3273 C.2     1  ZINC000963156778    0.5300
     22 O22        -7.0478    0.7536   67.3759 O.2     1  ZINC000963156778   -0.4800
     23 N23        -7.1406    0.1664   65.1875 N.am    1  ZINC000963156778   -0.6900
     24 C24        -8.0004    0.1516   64.1569 C.2     1  ZINC000963156778    0.5200
     25 O25        -7.7498   -0.2456   63.0392 O.2     1  ZINC000963156778   -0.4500
     26 S26        -7.3520    1.5261   54.4230 S.3     1  ZINC000963156778    0.4500
     27 N27        -7.0958    1.1986   52.9141 N.2     1  ZINC000963156778   -0.2900
     28 N28        -7.9880    0.3841   52.5038 N.2     1  ZINC000963156778   -0.2400
     29 H29        -9.7048   -1.9832   53.1939 H       1  ZINC000963156778    0.0900
     30 H30       -10.9043   -0.7354   53.6089 H       1  ZINC000963156778    0.0800
     31 H31       -10.2783   -0.8504   51.9465 H       1  ZINC000963156778    0.0800
     32 H32       -10.4152    1.0473   55.8181 H       1  ZINC000963156778    0.1000
     33 H33       -10.0097   -0.6857   55.7982 H       1  ZINC000963156778    0.0700
     34 H34       -10.4326   -0.1502   58.1748 H       1  ZINC000963156778    0.0600
     35 H35        -9.0505   -1.2878   58.1269 H       1  ZINC000963156778    0.0800
     36 H36        -8.0552    2.5003   56.8801 H       1  ZINC000963156778    0.1000
     37 H37        -9.7760    2.3491   57.3523 H       1  ZINC000963156778    0.0500
     38 H38        -8.3912    2.5227   61.6014 H       1  ZINC000963156778    0.4000
     39 H39        -8.8380    2.6621   63.8401 H       1  ZINC000963156778    0.1000
     40 H40       -10.5518    2.4530   64.2729 H       1  ZINC000963156778    0.1200
     41 H41        -9.2212    2.1219   66.2741 H       1  ZINC000963156778    0.1200
     42 H42        -9.7544    0.4743   66.7390 H       1  ZINC000963156778    0.1300
     43 H43        -6.2269   -0.1504   65.1126 H       1  ZINC000963156778    0.4200
@<TRIPOS>BOND
     1     1     2    1
     2     1    29    1
     3     1    30    1
     4     1    31    1
     5     2    28    1
     6     2     3    2
     7     3     4    1
     8     3    26    1
     9     4     5    1
    10     4    32    1
    11     4    33    1
    12     5    11    1
    13     5     6    1
    14     6     7    1
    15     6    34    1
    16     6    35    1
    17     7     8    1
    18     7    12    1
    19     7     9    1
    20     9    10    1
    21     9    11    1
    22     9    12    1
    23    11    36    1
    24    11    37    1
    25    12    13    1
    26    12    14    1
    27    14    15   am
    28    14    38    1
    29    15    16    2
    30    15    17    1
    31    17    18    1
    32    17    39    1
    33    17    40    1
    34    18    19    1
    35    18    24    1
    36    18    20    1
    37    20    21    1
    38    20    41    1
    39    20    42    1
    40    21    22    2
    41    21    23   am
    42    23    24   am
    43    23    43    1
    44    24    25    2
    45    26    27    1
    46    27    28    2
@<TRIPOS>SUBSTRUCTURE
     1 ZINC000963156778        1 TEMP              0 ****  ****    0 ROOT


##########                                Name:    ZINC000179496896
##########                DOCK_Rotatable_Bonds:                   8
##########                         Heavy_Atoms:                  27
##########                    Molecular_Weight:             396.504
##########                DOCK_Rotatable_Bonds:                   8
##########                       Formal_Charge:          0.00999944
##########                     HBond_Acceptors:                   8
##########                        HBond_Donors:                   1
##########                         Heavy_Atoms:                  27
##########                          Grid_Score:          -32.323963
##########                     Grid_vdw_energy:          -31.836018
##########                      Grid_es_energy:           -0.487944
##########           Internal_energy_repulsive:           31.451838

@<TRIPOS>MOLECULE
ZINC000179496896
 53 55 1 0 0
SMALL
USER_CHARGES


@<TRIPOS>ATOM
      1 C1         -8.0388    0.9032   53.2355 C.3     1  ZINC000179496896   -0.1500
      2 C2         -9.2302    0.3663   52.4398 C.3     1  ZINC000179496896   -0.1100
      3 C3         -9.0004   -1.1104   52.1115 C.3     1  ZINC000179496896   -0.1400
      4 C4        -10.5061    0.5112   53.2716 C.3     1  ZINC000179496896    0.1200
      5 N5        -10.3271   -0.1605   54.5613 N.pl3   1  ZINC000179496896   -0.3300
      6 N6        -10.4525   -1.5350   54.7918 N.2     1  ZINC000179496896   -0.2700
      7 C7        -10.2250   -1.7743   56.0537 C.2     1  ZINC000179496896    0.0800
      8 C8         -9.9413   -0.5440   56.6877 C.2     1  ZINC000179496896   -0.2500
      9 C9         -9.6247   -0.3470   58.1141 C.2     1  ZINC000179496896    0.5900
     10 O10        -9.0791    0.6763   58.4802 O.2     1  ZINC000179496896   -0.5300
     11 N11        -9.9400   -1.3010   59.0124 N.am    1  ZINC000179496896   -0.7100
     12 C12        -9.6270   -1.1044   60.4300 C.3     1  ZINC000179496896    0.1300
     13 C13       -10.7015   -0.2247   61.0722 C.3     1  ZINC000179496896    0.0700
     14 H14       -10.7116    0.7504   60.5851 H       1  ZINC000179496896    0.0900
     15 C15       -12.0696   -0.8902   60.9098 C.3     1  ZINC000179496896   -0.1900
     16 N16       -10.4060   -0.0552   62.5011 N.3     1  ZINC000179496896   -0.5300
     17 C17       -11.0581    1.1492   63.0346 C.3     1  ZINC000179496896    0.0600
     18 C18       -11.0676    1.0777   64.5665 C.3     1  ZINC000179496896   -0.0400
     19 C19        -9.6698    0.7243   65.0288 C.2     1  ZINC000179496896   -0.1700
     20 C20        -8.7118    0.2290   64.2202 C.2     1  ZINC000179496896   -0.1100
     21 C21        -7.5070   -0.0170   64.8685 C.2     1  ZINC000179496896   -0.1200
     22 C22        -7.4833    0.2679   66.1675 C.2     1  ZINC000179496896   -0.2200
     23 S23        -9.0508    0.8902   66.6636 S.3     1  ZINC000179496896    0.1000
     24 C24        -8.9566   -0.0272   62.7393 C.3     1  ZINC000179496896    0.1200
     25 C25       -10.0095    0.4384   55.7202 C.2     1  ZINC000179496896    0.0700
     26 C26        -9.7798    1.9131   55.9287 C.3     1  ZINC000179496896    0.3400
     27 F27       -10.5630    2.3605   56.9980 F       1  ZINC000179496896   -0.1500
     28 F28        -8.4288    2.1389   56.2136 F       1  ZINC000179496896   -0.2000
     29 H29        -7.1299    0.7998   52.6428 H       1  ZINC000179496896    0.0600
     30 H30        -8.2026    1.9551   53.4693 H       1  ZINC000179496896    0.0600
     31 H31        -7.9353    0.3370   54.1611 H       1  ZINC000179496896    0.0600
     32 H32        -9.3337    0.9324   51.5141 H       1  ZINC000179496896    0.0800
     33 H33        -8.8970   -1.6765   53.0372 H       1  ZINC000179496896    0.0600
     34 H34        -9.8493   -1.4929   51.5446 H       1  ZINC000179496896    0.0600
     35 H35        -8.0915   -1.2137   51.5188 H       1  ZINC000179496896    0.0700
     36 H36       -10.7132    1.5683   53.4382 H       1  ZINC000179496896    0.1000
     37 H37       -11.3411    0.0570   52.7382 H       1  ZINC000179496896    0.1000
     38 H38       -10.2495   -2.7431   56.5305 H       1  ZINC000179496896    0.2000
     39 H39       -10.3741   -2.1178   58.7203 H       1  ZINC000179496896    0.4100
     40 H40        -9.5998   -2.0707   60.9335 H       1  ZINC000179496896    0.0700
     41 H41        -8.6558   -0.6185   60.5236 H       1  ZINC000179496896    0.0700
     42 H42       -12.8351   -0.2635   61.3673 H       1  ZINC000179496896    0.0600
     43 H43       -12.2888   -1.0160   59.8495 H       1  ZINC000179496896    0.0700
     44 H44       -12.0594   -1.8652   61.3969 H       1  ZINC000179496896    0.0600
     45 H45       -10.5076    2.0339   62.7145 H       1  ZINC000179496896    0.0400
     46 H46       -12.0824    1.2027   62.6659 H       1  ZINC000179496896    0.0900
     47 H47       -11.3584    2.0440   64.9784 H       1  ZINC000179496896    0.0800
     48 H48       -11.7689    0.3106   64.8948 H       1  ZINC000179496896    0.0900
     49 H49        -6.6462   -0.4141   64.3511 H       1  ZINC000179496896    0.1400
     50 H50        -6.6312    0.1371   66.8181 H       1  ZINC000179496896    0.1600
     51 H51        -8.5209   -0.9856   62.4569 H       1  ZINC000179496896    0.0900
     52 H52        -8.5045    0.7709   62.1504 H       1  ZINC000179496896    0.0500
     53 H53       -10.0558    2.4553   55.0243 H       1  ZINC000179496896    0.1300
@<TRIPOS>BOND
     1     1     2    1
     2     1    29    1
     3     1    30    1
     4     1    31    1
     5     2     3    1
     6     2     4    1
     7     2    32    1
     8     3    33    1
     9     3    34    1
    10     3    35    1
    11     4     5    1
    12     4    36    1
    13     4    37    1
    14     5    25    1
    15     5     6    1
    16     6     7    2
    17     7     8    1
    18     7    38    1
    19     8     9    1
    20     8    25    2
    21     9    10    2
    22     9    11   am
    23    11    12    1
    24    11    39    1
    25    12    13    1
    26    12    40    1
    27    12    41    1
    28    13    14    1
    29    13    15    1
    30    13    16    1
    31    15    42    1
    32    15    43    1
    33    15    44    1
    34    16    24    1
    35    16    17    1
    36    17    18    1
    37    17    45    1
    38    17    46    1
    39    18    19    1
    40    18    47    1
    41    18    48    1
    42    19    23    1
    43    19    20    2
    44    20    21    1
    45    20    24    1
    46    21    22    2
    47    21    49    1
    48    22    23    1
    49    22    50    1
    50    24    51    1
    51    24    52    1
    52    25    26    1
    53    26    27    1
    54    26    28    1
    55    26    53    1
@<TRIPOS>SUBSTRUCTURE
     1 ZINC000179496896        1 TEMP              0 ****  ****    0 ROOT


##########                                Name:    ZINC001045438664
##########                DOCK_Rotatable_Bonds:                   6
##########                         Heavy_Atoms:                  26
##########                    Molecular_Weight:             352.439
##########                DOCK_Rotatable_Bonds:                   6
##########                       Formal_Charge:          -0.0099999
##########                     HBond_Acceptors:                   7
##########                        HBond_Donors:                   2
##########                         Heavy_Atoms:                  26
##########                          Grid_Score:          -32.283371
##########                     Grid_vdw_energy:          -30.227966
##########                      Grid_es_energy:           -2.055404
##########           Internal_energy_repulsive:           25.931707

@<TRIPOS>MOLECULE
ZINC001045438664
 50 53 1 0 0
SMALL
USER_CHARGES


@<TRIPOS>ATOM
      1 C1         -5.9395    3.1120   57.8392 C.3     1  ZINC001045438664   -0.1100
      2 C2         -7.2255    2.4067   57.4929 C.ar    1  ZINC001045438664    0.2100
      3 C3         -7.8863    2.6967   56.3158 C.ar    1  ZINC001045438664   -0.3000
      4 C4         -9.0744    2.0171   56.0378 C.ar    1  ZINC001045438664    0.4500
      5 N5         -9.7743    2.2720   54.8698 N.pl3   1  ZINC001045438664   -0.7100
      6 C6         -9.8406    1.2539   53.8184 C.3     1  ZINC001045438664    0.1500
      7 H7         -9.9855    1.7380   52.8526 H       1  ZINC001045438664    0.0900
      8 C8        -11.0117    0.3094   54.0961 C.3     1  ZINC001045438664   -0.1300
      9 C9        -11.0810   -0.7537   52.9981 C.3     1  ZINC001045438664   -0.1200
     10 C10        -9.7758   -1.5518   52.9780 C.3     1  ZINC001045438664   -0.1200
     11 C11        -8.6046   -0.6073   52.7002 C.3     1  ZINC001045438664   -0.1300
     12 C12        -8.5354    0.4559   53.7983 C.3     1  ZINC001045438664    0.1400
     13 H13        -8.3906   -0.0282   54.7641 H       1  ZINC001045438664    0.1000
     14 N14        -7.4141    1.3603   53.5324 N.am    1  ZINC001045438664   -0.7200
     15 C15        -7.3926    2.0925   52.4010 C.2     1  ZINC001045438664    0.5700
     16 O16        -8.3029    2.0012   51.6006 O.2     1  ZINC001045438664   -0.5200
     17 C17        -6.2619    3.0065   52.1334 C.ar    1  ZINC001045438664   -0.2500
     18 C18        -6.2093    3.7604   50.9556 C.ar    1  ZINC001045438664    0.1900
     19 N19        -5.1802    4.5654   50.7573 N.ar    1  ZINC001045438664   -0.5200
     20 C20        -4.2137    4.6632   51.6491 C.ar    1  ZINC001045438664    0.3200
     21 N21        -4.2232    3.9711   52.7715 N.ar    1  ZINC001045438664   -0.5200
     22 C22        -5.2167    3.1466   53.0535 C.ar    1  ZINC001045438664    0.2100
     23 N23        -9.5226    1.1210   56.9120 N.ar    1  ZINC001045438664   -0.5800
     24 C24        -8.8590    0.8757   58.0237 C.ar    1  ZINC001045438664    0.4000
     25 C25        -9.3995   -0.1476   58.9890 C.3     1  ZINC001045438664   -0.1100
     26 C26        -8.4109   -0.7909   59.9635 C.3     1  ZINC001045438664   -0.1500
     27 C27        -9.4325    0.2283   60.4718 C.3     1  ZINC001045438664   -0.1500
     28 N28        -7.7330    1.4963   58.3123 N.ar    1  ZINC001045438664   -0.5600
     29 H29        -5.0968    2.5489   57.4381 H       1  ZINC001045438664    0.0800
     30 H30        -5.9463    4.1128   57.4073 H       1  ZINC001045438664    0.0800
     31 H31        -5.8452    3.1845   58.9227 H       1  ZINC001045438664    0.0800
     32 H32        -7.4946    3.4308   55.6275 H       1  ZINC001045438664    0.1400
     33 H33       -10.2205    3.1248   54.7481 H       1  ZINC001045438664    0.4100
     34 H34       -10.8670   -0.1747   55.0619 H       1  ZINC001045438664    0.0700
     35 H35       -11.9416    0.8781   54.1105 H       1  ZINC001045438664    0.0700
     36 H36       -11.9152   -1.4267   53.1959 H       1  ZINC001045438664    0.0700
     37 H37       -11.2257   -0.2696   52.0323 H       1  ZINC001045438664    0.0700
     38 H38        -9.6309   -2.0359   53.9438 H       1  ZINC001045438664    0.0700
     39 H39        -9.8250   -2.3093   52.1957 H       1  ZINC001045438664    0.0700
     40 H40        -7.6748   -1.1759   52.6859 H       1  ZINC001045438664    0.0800
     41 H41        -8.7494   -0.1232   51.7345 H       1  ZINC001045438664    0.0700
     42 H42        -6.6871    1.4322   54.1705 H       1  ZINC001045438664    0.4000
     43 H43        -6.9969    3.6854   50.2204 H       1  ZINC001045438664    0.1700
     44 H44        -3.3878    5.3312   51.4538 H       1  ZINC001045438664    0.2100
     45 H45        -5.2175    2.5832   53.9749 H       1  ZINC001045438664    0.1800
     46 H46       -10.2098   -0.7699   58.6095 H       1  ZINC001045438664    0.1300
     47 H47        -8.5707   -1.8369   60.2251 H       1  ZINC001045438664    0.1000
     48 H48        -7.3695   -0.4741   59.9065 H       1  ZINC001045438664    0.1100
     49 H49        -9.0633    1.2156   60.7491 H       1  ZINC001045438664    0.1000
     50 H50       -10.2644   -0.1472   61.0678 H       1  ZINC001045438664    0.1000
@<TRIPOS>BOND
     1     1     2    1
     2     1    29    1
     3     1    30    1
     4     1    31    1
     5     2    28   ar
     6     2     3   ar
     7     3     4   ar
     8     3    32    1
     9     4     5    1
    10     4    23   ar
    11     5     6    1
    12     5    33    1
    13     6     7    1
    14     6    12    1
    15     6     8    1
    16     8     9    1
    17     8    34    1
    18     8    35    1
    19     9    10    1
    20     9    36    1
    21     9    37    1
    22    10    11    1
    23    10    38    1
    24    10    39    1
    25    11    12    1
    26    11    40    1
    27    11    41    1
    28    12    13    1
    29    12    14    1
    30    14    15   am
    31    14    42    1
    32    15    16    2
    33    15    17    1
    34    17    22   ar
    35    17    18   ar
    36    18    19   ar
    37    18    43    1
    38    19    20   ar
    39    20    21   ar
    40    20    44    1
    41    21    22   ar
    42    22    45    1
    43    23    24   ar
    44    24    25    1
    45    24    28   ar
    46    25    27    1
    47    25    26    1
    48    25    46    1
    49    26    27    1
    50    26    47    1
    51    26    48    1
    52    27    49    1
    53    27    50    1
@<TRIPOS>SUBSTRUCTURE
     1 ZINC001045438664        1 TEMP              0 ****  ****    0 ROOT


##########                                Name:    ZINC000562561773
##########                DOCK_Rotatable_Bonds:                   6
##########                         Heavy_Atoms:                  26
##########                    Molecular_Weight:             371.466
##########                DOCK_Rotatable_Bonds:                   6
##########                       Formal_Charge:           0.0199999
##########                     HBond_Acceptors:                   9
##########                        HBond_Donors:                   0
##########                         Heavy_Atoms:                  26
##########                          Grid_Score:          -32.281162
##########                     Grid_vdw_energy:          -30.637913
##########                      Grid_es_energy:           -1.643251
##########           Internal_energy_repulsive:           18.269911

@<TRIPOS>MOLECULE
ZINC000562561773
 47 50 1 0 0
SMALL
USER_CHARGES


@<TRIPOS>ATOM
      1 C1         -6.7222    3.0428   53.0908 C.3     1  ZINC000562561773   -0.1100
      2 C2         -7.0760    2.5716   54.4779 C.ar    1  ZINC000562561773   -0.0400
      3 C3         -6.4583    3.1377   55.5765 C.ar    1  ZINC000562561773   -0.1200
      4 C4         -6.7780    2.7103   56.8501 C.ar    1  ZINC000562561773   -0.0700
      5 C5         -7.7261    1.7054   57.0309 C.ar    1  ZINC000562561773   -0.0300
      6 C6         -8.0711    1.2455   58.3993 C.2     1  ZINC000562561773    0.2200
      7 N7         -8.2658    0.0087   58.7765 N.2     1  ZINC000562561773   -0.3700
      8 O8         -8.5316   -0.0294   59.9593 O.3     1  ZINC000562561773    0.0900
      9 C9         -8.5336    1.2067   60.4681 C.2     1  ZINC000562561773    0.1900
     10 C10        -8.8163    1.5852   61.8991 C.3     1  ZINC000562561773   -0.0100
     11 C11       -10.3284    1.6782   62.1128 C.3     1  ZINC000562561773   -0.1200
     12 S12       -10.6649    2.3388   63.7641 S.3     1  ZINC000562561773    0.0600
     13 C13        -9.9534    1.0663   64.7535 C.2     1  ZINC000562561773    0.2100
     14 N14        -9.3636   -0.0256   64.3171 N.2     1  ZINC000562561773   -0.3300
     15 N15        -8.9566   -0.7414   65.3024 N.2     1  ZINC000562561773   -0.0300
     16 N16        -9.2499   -0.1721   66.4212 N.2     1  ZINC000562561773   -0.0700
     17 N17        -9.9057    1.0308   66.1062 N.pl3   1  ZINC000562561773   -0.3600
     18 C18       -10.4327    2.0278   67.0412 C.3     1  ZINC000562561773    0.0800
     19 N19        -8.2369    2.0265   59.4907 N.2     1  ZINC000562561773   -0.4600
     20 C20        -8.3494    1.1340   55.9248 C.ar    1  ZINC000562561773   -0.1100
     21 C21        -8.0271    1.5725   54.6491 C.ar    1  ZINC000562561773    0.0800
     22 N22        -8.6501    1.0027   53.5361 N.3     1  ZINC000562561773   -0.4800
     23 C23        -8.4410   -0.4674   53.5036 C.3     1  ZINC000562561773    0.0400
     24 C24        -9.5799   -0.9673   52.5798 C.3     1  ZINC000562561773   -0.1200
     25 C25       -10.7624   -0.0467   52.9597 C.3     1  ZINC000562561773   -0.1300
     26 C26       -10.1149    1.2005   53.5894 C.3     1  ZINC000562561773    0.0400
     27 H27        -7.3756    3.8688   52.8100 H       1  ZINC000562561773    0.0700
     28 H28        -5.6852    3.3782   53.0745 H       1  ZINC000562561773    0.0600
     29 H29        -6.8499    2.2223   52.3847 H       1  ZINC000562561773    0.0800
     30 H30        -5.7228    3.9166   55.4386 H       1  ZINC000562561773    0.1400
     31 H31        -6.2926    3.1551   57.7063 H       1  ZINC000562561773    0.1400
     32 H32        -8.4012    0.8278   62.5641 H       1  ZINC000562561773    0.1200
     33 H33        -8.3585    2.5501   62.1170 H       1  ZINC000562561773    0.1300
     34 H34       -10.7616    2.3389   61.3620 H       1  ZINC000562561773    0.1100
     35 H35       -10.7700    0.6858   62.0216 H       1  ZINC000562561773    0.1100
     36 H36        -9.6597    2.7642   67.2609 H       1  ZINC000562561773    0.1000
     37 H37       -11.2928    2.5264   66.5942 H       1  ZINC000562561773    0.1000
     38 H38       -10.7378    1.5348   67.9642 H       1  ZINC000562561773    0.1100
     39 H39        -9.0847    0.3547   56.0600 H       1  ZINC000562561773    0.1300
     40 H40        -7.4668   -0.7082   53.0780 H       1  ZINC000562561773    0.0900
     41 H41        -8.5413   -0.8925   54.5024 H       1  ZINC000562561773    0.0500
     42 H42        -9.3113   -0.8372   51.5314 H       1  ZINC000562561773    0.0800
     43 H43        -9.8190   -2.0095   52.7913 H       1  ZINC000562561773    0.0700
     44 H44       -11.3282    0.2292   52.0698 H       1  ZINC000562561773    0.0800
     45 H45       -11.4105   -0.5423   53.6825 H       1  ZINC000562561773    0.0700
     46 H46       -10.4381    1.3038   54.6253 H       1  ZINC000562561773    0.0500
     47 H47       -10.3905    2.0890   53.0213 H       1  ZINC000562561773    0.0800
@<TRIPOS>BOND
     1     1     2    1
     2     1    27    1
     3     1    28    1
     4     1    29    1
     5     2    21   ar
     6     2     3   ar
     7     3     4   ar
     8     3    30    1
     9     4     5   ar
    10     4    31    1
    11     5     6    1
    12     5    20   ar
    13     6    19    1
    14     6     7    2
    15     7     8    1
    16     8     9    1
    17     9    10    1
    18     9    19    2
    19    10    11    1
    20    10    32    1
    21    10    33    1
    22    11    12    1
    23    11    34    1
    24    11    35    1
    25    12    13    1
    26    13    17    1
    27    13    14    2
    28    14    15    1
    29    15    16    2
    30    16    17    1
    31    17    18    1
    32    18    36    1
    33    18    37    1
    34    18    38    1
    35    20    21   ar
    36    20    39    1
    37    21    22    1
    38    22    26    1
    39    22    23    1
    40    23    24    1
    41    23    40    1
    42    23    41    1
    43    24    25    1
    44    24    42    1
    45    24    43    1
    46    25    26    1
    47    25    44    1
    48    25    45    1
    49    26    46    1
    50    26    47    1
@<TRIPOS>SUBSTRUCTURE
     1 ZINC000562561773        1 TEMP              0 ****  ****    0 ROOT


##########                                Name:    ZINC000175255939
##########                DOCK_Rotatable_Bonds:                   8
##########                         Heavy_Atoms:                  28
##########                    Molecular_Weight:             394.375
##########                DOCK_Rotatable_Bonds:                   8
##########                       Formal_Charge:          -0.0399999
##########                     HBond_Acceptors:                   9
##########                        HBond_Donors:                   1
##########                         Heavy_Atoms:                  28
##########                          Grid_Score:          -32.281116
##########                     Grid_vdw_energy:          -30.539602
##########                      Grid_es_energy:           -1.741513
##########           Internal_energy_repulsive:           12.109084

@<TRIPOS>MOLECULE
ZINC000175255939
 48 50 1 0 0
SMALL
USER_CHARGES


@<TRIPOS>ATOM
      1 C1         -8.5914    4.8341   48.0490 C.3     1  ZINC000175255939    0.0300
      2 O2         -8.1117    6.0678   48.6459 O.3     1  ZINC000175255939   -0.3600
      3 C3         -7.7144    6.0108   49.9268 C.2     1  ZINC000175255939    0.4600
      4 O4         -7.9878    6.9111   50.6848 O.2     1  ZINC000175255939   -0.5000
      5 C5         -6.9274    4.8239   50.4194 C.3     1  ZINC000175255939   -0.0800
      6 H6         -6.4364    4.3381   49.5761 H       1  ZINC000175255939    0.1100
      7 C7         -5.8720    5.2926   51.4231 C.3     1  ZINC000175255939   -0.1200
      8 C8         -5.0730    4.0874   51.9232 C.3     1  ZINC000175255939   -0.1100
      9 C9         -6.0185    3.0953   52.6033 C.3     1  ZINC000175255939   -0.1200
     10 C10        -7.0739    2.6265   51.5996 C.3     1  ZINC000175255939   -0.1000
     11 H11        -6.5829    2.1408   50.7564 H       1  ZINC000175255939    0.1100
     12 C12        -8.0052    1.6493   52.2696 C.2     1  ZINC000175255939    0.5100
     13 O13        -9.1024    1.4370   51.7987 O.2     1  ZINC000175255939   -0.4800
     14 N14        -7.6186    1.0114   53.3921 N.am    1  ZINC000175255939   -0.6300
     15 C15        -8.4769    0.1128   54.0099 C.2     1  ZINC000175255939    0.2100
     16 C16        -8.8987    0.1468   55.3055 C.2     1  ZINC000175255939   -0.2600
     17 C17        -9.7490   -0.9839   55.4162 C.2     1  ZINC000175255939    0.0900
     18 C18       -10.4854   -1.4294   56.6250 C.ar    1  ZINC000175255939   -0.0500
     19 C19       -10.1616   -0.9019   57.8737 C.ar    1  ZINC000175255939   -0.0600
     20 C20       -10.8475   -1.3177   58.9953 C.ar    1  ZINC000175255939   -0.1300
     21 C21       -11.8597   -2.2613   58.8815 C.ar    1  ZINC000175255939    0.1200
     22 O22       -12.5338   -2.6691   59.9882 O.3     1  ZINC000175255939   -0.3200
     23 C23       -13.9534   -2.5055   59.9801 C.3     1  ZINC000175255939    0.4100
     24 F24       -14.4893   -3.0254   61.1633 F       1  ZINC000175255939   -0.2000
     25 F25       -14.2655   -1.1451   59.8851 F       1  ZINC000175255939   -0.2000
     26 C26       -12.1845   -2.7885   57.6387 C.ar    1  ZINC000175255939   -0.1900
     27 C27       -11.5061   -2.3718   56.5129 C.ar    1  ZINC000175255939   -0.0500
     28 N28        -9.7537   -1.5565   54.2361 N.2     1  ZINC000175255939   -0.3600
     29 O29        -9.0598   -0.9581   53.4476 O.3     1  ZINC000175255939    0.1200
     30 C30        -7.8729    3.8316   51.0996 C.3     1  ZINC000175255939   -0.0900
     31 H31        -8.8799    5.0193   47.0143 H       1  ZINC000175255939    0.1000
     32 H32        -7.7998    4.0852   48.0771 H       1  ZINC000175255939    0.0600
     33 H33        -9.4544    4.4717   48.6075 H       1  ZINC000175255939    0.0600
     34 H34        -5.1985    5.9994   50.9385 H       1  ZINC000175255939    0.0800
     35 H35        -6.3630    5.7783   52.2664 H       1  ZINC000175255939    0.0700
     36 H36        -4.5820    3.6018   51.0799 H       1  ZINC000175255939    0.0700
     37 H37        -4.3211    4.4215   52.6382 H       1  ZINC000175255939    0.0800
     38 H38        -5.4493    2.2368   52.9596 H       1  ZINC000175255939    0.0700
     39 H39        -6.5094    3.5810   53.4466 H       1  ZINC000175255939    0.0800
     40 H40        -6.7406    1.1803   53.7681 H       1  ZINC000175255939    0.4300
     41 H41        -8.6449    0.8665   56.0697 H       1  ZINC000175255939    0.1800
     42 H42        -9.3738   -0.1684   57.9629 H       1  ZINC000175255939    0.1400
     43 H43       -10.5969   -0.9093   59.9632 H       1  ZINC000175255939    0.1400
     44 H44       -14.3754   -3.0357   59.1264 H       1  ZINC000175255939    0.1900
     45 H45       -12.9723   -3.5223   57.5532 H       1  ZINC000175255939    0.1400
     46 H46       -11.7595   -2.7819   55.5465 H       1  ZINC000175255939    0.1400
     47 H47        -8.3639    4.3173   51.9428 H       1  ZINC000175255939    0.0900
     48 H48        -8.6248    3.4978   50.3845 H       1  ZINC000175255939    0.0800
@<TRIPOS>BOND
     1     1     2    1
     2     1    31    1
     3     1    32    1
     4     1    33    1
     5     2     3    1
     6     3     4    2
     7     3     5    1
     8     5     6    1
     9     5    30    1
    10     5     7    1
    11     7     8    1
    12     7    34    1
    13     7    35    1
    14     8     9    1
    15     8    36    1
    16     8    37    1
    17     9    10    1
    18     9    38    1
    19     9    39    1
    20    10    11    1
    21    10    12    1
    22    10    30    1
    23    12    13    2
    24    12    14   am
    25    14    15    1
    26    14    40    1
    27    15    29    1
    28    15    16    2
    29    16    17    1
    30    16    41    1
    31    17    18    1
    32    17    28    2
    33    18    27   ar
    34    18    19   ar
    35    19    20   ar
    36    19    42    1
    37    20    21   ar
    38    20    43    1
    39    21    22    1
    40    21    26   ar
    41    22    23    1
    42    23    24    1
    43    23    25    1
    44    23    44    1
    45    26    27   ar
    46    26    45    1
    47    27    46    1
    48    28    29    1
    49    30    47    1
    50    30    48    1
@<TRIPOS>SUBSTRUCTURE
     1 ZINC000175255939        1 TEMP              0 ****  ****    0 ROOT


##########                                Name:    ZINC000537799672
##########                DOCK_Rotatable_Bonds:                   9
##########                         Heavy_Atoms:                  29
##########                    Molecular_Weight:             401.478
##########                DOCK_Rotatable_Bonds:                   9
##########                       Formal_Charge:        -4.47035e-07
##########                     HBond_Acceptors:                   6
##########                        HBond_Donors:                   1
##########                         Heavy_Atoms:                  29
##########                          Grid_Score:          -32.210995
##########                     Grid_vdw_energy:          -31.179544
##########                      Grid_es_energy:           -1.031450
##########           Internal_energy_repulsive:           13.856812

@<TRIPOS>MOLECULE
ZINC000537799672
 57 59 1 0 0
SMALL
USER_CHARGES


@<TRIPOS>ATOM
      1 C1         -7.8586    0.0164   64.1292 C.3     1  ZINC000537799672    0.0300
      2 O2         -8.2083    0.0396   62.7438 O.3     1  ZINC000537799672   -0.3800
      3 C3         -9.5972    0.2689   62.4986 C.3     1  ZINC000537799672    0.1200
      4 H4        -10.1908   -0.4215   63.0978 H       1  ZINC000537799672    0.0900
      5 C5         -9.9460    1.6865   62.8727 C.ar    1  ZINC000537799672   -0.1300
      6 C6         -9.0247    2.6987   62.6789 C.ar    1  ZINC000537799672   -0.0600
      7 C7         -9.3434    3.9990   63.0216 C.ar    1  ZINC000537799672   -0.1500
      8 C8        -10.5864    4.2879   63.5590 C.ar    1  ZINC000537799672    0.1000
      9 F9        -10.8992    5.5587   63.8940 F       1  ZINC000537799672   -0.1400
     10 C10       -11.5086    3.2733   63.7523 C.ar    1  ZINC000537799672   -0.1500
     11 C11       -11.1893    1.9745   63.4044 C.ar    1  ZINC000537799672   -0.0800
     12 C12        -9.8972    0.0446   61.0152 C.3     1  ZINC000537799672    0.1600
     13 H13       -10.8551    0.5005   60.7651 H       1  ZINC000537799672    0.1000
     14 C14        -9.9567   -1.4572   60.7284 C.3     1  ZINC000537799672   -0.1600
     15 N15        -8.8397    0.6547   60.2054 N.am    1  ZINC000537799672   -0.7100
     16 C16        -9.0899    1.7805   59.5079 C.2     1  ZINC000537799672    0.5600
     17 O17       -10.1924    2.2903   59.5519 O.2     1  ZINC000537799672   -0.5400
     18 C18        -8.0232    2.3953   58.6893 C.ar    1  ZINC000537799672   -0.1400
     19 C19        -7.1593    3.3343   59.2547 C.ar    1  ZINC000537799672   -0.0800
     20 C20        -6.1656    3.9040   58.4853 C.ar    1  ZINC000537799672   -0.1300
     21 C21        -6.0249    3.5466   57.1563 C.ar    1  ZINC000537799672   -0.0900
     22 C22        -6.8784    2.6164   56.5896 C.ar    1  ZINC000537799672   -0.1100
     23 C23        -7.8721    2.0348   57.3493 C.ar    1  ZINC000537799672   -0.0300
     24 C24        -8.8005    1.0217   56.7305 C.3     1  ZINC000537799672    0.1100
     25 O25        -8.1371    0.3670   55.6472 O.3     1  ZINC000537799672   -0.3800
     26 C26        -8.9109    0.2994   54.4477 C.3     1  ZINC000537799672    0.0900
     27 C27        -8.0033   -0.0783   53.2730 C.3     1  ZINC000537799672   -0.1800
     28 C28        -8.8531   -0.2254   52.0083 C.3     1  ZINC000537799672    0.0600
     29 O29        -9.8659   -1.2093   52.2281 O.3     1  ZINC000537799672   -0.3800
     30 C30       -10.7733   -0.8868   53.2840 C.3     1  ZINC000537799672    0.0600
     31 C31       -10.0005   -0.7663   54.6001 C.3     1  ZINC000537799672   -0.1500
     32 H32        -8.4651   -0.7285   64.6444 H       1  ZINC000537799672    0.0500
     33 H33        -6.8040   -0.2383   64.2336 H       1  ZINC000537799672    0.0900
     34 H34        -8.0403    0.9982   64.5663 H       1  ZINC000537799672    0.0400
     35 H35        -8.0552    2.4731   62.2597 H       1  ZINC000537799672    0.1300
     36 H36        -8.6232    4.7895   62.8706 H       1  ZINC000537799672    0.1400
     37 H37       -12.4783    3.4975   64.1717 H       1  ZINC000537799672    0.1400
     38 H38       -11.9086    1.1831   63.5547 H       1  ZINC000537799672    0.1300
     39 H39       -10.6776   -1.9266   61.3978 H       1  ZINC000537799672    0.0700
     40 H40       -10.2627   -1.6179   59.6946 H       1  ZINC000537799672    0.0600
     41 H41        -8.9723   -1.8970   60.8885 H       1  ZINC000537799672    0.0700
     42 H42        -7.9595    0.2485   60.1712 H       1  ZINC000537799672    0.4000
     43 H43        -7.2685    3.6148   60.2919 H       1  ZINC000537799672    0.1300
     44 H44        -5.4963    4.6308   58.9216 H       1  ZINC000537799672    0.1300
     45 H45        -5.2457    3.9957   56.5585 H       1  ZINC000537799672    0.1300
     46 H46        -6.7636    2.3420   55.5514 H       1  ZINC000537799672    0.1400
     47 H47        -9.0857    0.2843   57.4809 H       1  ZINC000537799672    0.0800
     48 H48        -9.6927    1.5257   56.3590 H       1  ZINC000537799672    0.0800
     49 H49        -9.3726    1.2682   54.2565 H       1  ZINC000537799672    0.0600
     50 H50        -7.2582    0.7028   53.1225 H       1  ZINC000537799672    0.0800
     51 H51        -7.5036   -1.0229   53.4880 H       1  ZINC000537799672    0.0800
     52 H52        -9.3204    0.7304   51.7711 H       1  ZINC000537799672    0.0500
     53 H53        -8.2188   -0.5360   51.1781 H       1  ZINC000537799672    0.1000
     54 H54       -11.2656    0.0605   53.0636 H       1  ZINC000537799672    0.0500
     55 H55       -11.5221   -1.6738   53.3730 H       1  ZINC000537799672    0.1000
     56 H56        -9.5411   -1.7248   54.8418 H       1  ZINC000537799672    0.0800
     57 H57       -10.6838   -0.4770   55.3986 H       1  ZINC000537799672    0.0800
@<TRIPOS>BOND
     1     1     2    1
     2     1    32    1
     3     1    33    1
     4     1    34    1
     5     2     3    1
     6     3     4    1
     7     3     5    1
     8     3    12    1
     9     5    11   ar
    10     5     6   ar
    11     6     7   ar
    12     6    35    1
    13     7     8   ar
    14     7    36    1
    15     8     9    1
    16     8    10   ar
    17    10    11   ar
    18    10    37    1
    19    11    38    1
    20    12    13    1
    21    12    14    1
    22    12    15    1
    23    14    39    1
    24    14    40    1
    25    14    41    1
    26    15    16   am
    27    15    42    1
    28    16    17    2
    29    16    18    1
    30    18    23   ar
    31    18    19   ar
    32    19    20   ar
    33    19    43    1
    34    20    21   ar
    35    20    44    1
    36    21    22   ar
    37    21    45    1
    38    22    23   ar
    39    22    46    1
    40    23    24    1
    41    24    25    1
    42    24    47    1
    43    24    48    1
    44    25    26    1
    45    26    31    1
    46    26    27    1
    47    26    49    1
    48    27    28    1
    49    27    50    1
    50    27    51    1
    51    28    29    1
    52    28    52    1
    53    28    53    1
    54    29    30    1
    55    30    31    1
    56    30    54    1
    57    30    55    1
    58    31    56    1
    59    31    57    1
@<TRIPOS>SUBSTRUCTURE
     1 ZINC000537799672        1 TEMP              0 ****  ****    0 ROOT


##########                                Name:    ZINC000824084043
##########                DOCK_Rotatable_Bonds:                  11
##########                         Heavy_Atoms:                  27
##########                    Molecular_Weight:             382.547
##########                DOCK_Rotatable_Bonds:                  11
##########                       Formal_Charge:        -6.85453e-07
##########                     HBond_Acceptors:                   7
##########                        HBond_Donors:                   3
##########                         Heavy_Atoms:                  27
##########                          Grid_Score:          -32.209732
##########                     Grid_vdw_energy:          -26.821207
##########                      Grid_es_energy:           -5.388527
##########           Internal_energy_repulsive:           21.041193

@<TRIPOS>MOLECULE
ZINC000824084043
 65 66 1 0 0
SMALL
USER_CHARGES


@<TRIPOS>ATOM
      1 C1         -1.0143    3.1566   61.9996 C.3     1  ZINC000824084043   -0.1400
      2 C2          0.4612    3.5477   61.8952 C.3     1  ZINC000824084043   -0.1000
      3 C3          1.2418    2.9039   63.0429 C.3     1  ZINC000824084043   -0.1300
      4 C4          1.0247    3.0607   60.5588 C.3     1  ZINC000824084043    0.1700
      5 H5          0.5911    2.0913   60.3133 H       1  ZINC000824084043    0.0700
      6 C6          0.6765    4.0679   59.4610 C.3     1  ZINC000824084043   -0.1400
      7 C7          0.8604    3.4126   58.0907 C.3     1  ZINC000824084043    0.1300
      8 N8         -0.4520    3.1555   57.4924 N.am    1  ZINC000824084043   -0.6200
      9 C9         -1.3190    2.1136   58.0483 C.3     1  ZINC000824084043    0.0800
     10 C10        -0.8616    3.8774   56.4306 C.2     1  ZINC000824084043    0.7000
     11 O11        -0.1426    4.7430   55.9700 O.2     1  ZINC000824084043   -0.5800
     12 N12        -2.0682    3.6397   55.8791 N.am    1  ZINC000824084043   -0.7500
     13 C13        -2.5128    4.4232   54.7238 C.3     1  ZINC000824084043    0.1600
     14 C14        -2.2366    3.6399   53.4371 C.3     1  ZINC000824084043   -0.1600
     15 C15        -2.7750    4.4283   52.2412 C.3     1  ZINC000824084043   -0.0100
     16 N16        -4.2212    4.6282   52.3933 N.4     1  ZINC000824084043   -0.3800
     17 H17        -4.6754    3.7322   52.4882 H       1  ZINC000824084043    0.4200
     18 C18        -4.7460    5.3183   51.2074 C.3     1  ZINC000824084043    0.0000
     19 C19        -6.2750    5.2637   51.2205 C.3     1  ZINC000824084043   -0.1200
     20 C20        -6.8525    5.9421   49.9535 C.3     1  ZINC000824084043   -0.1400
     21 C21        -8.2497    5.2868   49.8218 C.3     1  ZINC000824084043   -0.1200
     22 C22        -8.0195    3.8184   50.2349 C.3     1  ZINC000824084043   -0.1300
     23 C23        -6.7639    3.8037   51.1243 C.3     1  ZINC000824084043   -0.1100
     24 C24        -4.4890    5.4398   53.5867 C.3     1  ZINC000824084043    0.0000
     25 C25        -4.0166    4.6903   54.8344 C.3     1  ZINC000824084043   -0.1600
     26 N26         2.4806    2.9327   60.6602 N.am    1  ZINC000824084043   -0.7800
     27 C27         3.0412    1.7166   60.8129 C.2     1  ZINC000824084043    0.6600
     28 O28         2.3344    0.7200   60.8683 O.co2   1  ZINC000824084043   -0.7200
     29 O29         4.2568    1.6097   60.8961 O.co2   1  ZINC000824084043   -0.7300
     30 H30        -1.4157    3.5036   62.9517 H       1  ZINC000824084043    0.0500
     31 H31        -1.5704    3.6152   61.1819 H       1  ZINC000824084043    0.0500
     32 H32        -1.1078    2.0723   61.9393 H       1  ZINC000824084043    0.0500
     33 H33         0.5548    4.6321   61.9554 H       1  ZINC000824084043    0.0500
     34 H34         1.1483    1.8197   62.9826 H       1  ZINC000824084043    0.0600
     35 H35         2.2930    3.1827   62.9686 H       1  ZINC000824084043    0.0700
     36 H36         0.8404    3.2510   63.9950 H       1  ZINC000824084043    0.0300
     37 H37        -0.3596    4.3864   59.5754 H       1  ZINC000824084043    0.0700
     38 H38         1.3337    4.9338   59.5407 H       1  ZINC000824084043    0.0600
     39 H39         1.4307    4.0784   57.4431 H       1  ZINC000824084043    0.0900
     40 H40         1.3972    2.4712   58.2073 H       1  ZINC000824084043    0.0900
     41 H41        -1.9577    2.5454   58.8189 H       1  ZINC000824084043    0.0600
     42 H42        -1.9387    1.6952   57.2552 H       1  ZINC000824084043    0.0600
     43 H43        -0.7057    1.3251   58.4845 H       1  ZINC000824084043    0.0800
     44 H44        -2.6423    2.9498   56.2472 H       1  ZINC000824084043    0.4000
     45 H45        -1.9751    5.3709   54.6975 H       1  ZINC000824084043    0.1100
     46 H46        -1.1624    3.4942   53.3232 H       1  ZINC000824084043    0.1200
     47 H47        -2.7329    2.6708   53.4874 H       1  ZINC000824084043    0.0900
     48 H48        -2.2780    5.3971   52.1917 H       1  ZINC000824084043    0.1300
     49 H49        -2.5799    3.8735   51.3234 H       1  ZINC000824084043    0.1300
     50 H50        -4.4194    6.3582   51.2179 H       1  ZINC000824084043    0.1300
     51 H51        -4.3727    4.8294   50.3076 H       1  ZINC000824084043    0.1300
     52 H52        -6.6650    5.7381   52.1211 H       1  ZINC000824084043    0.1000
     53 H53        -6.9428    7.0185   50.0987 H       1  ZINC000824084043    0.0700
     54 H54        -6.2375    5.7190   49.0816 H       1  ZINC000824084043    0.0800
     55 H55        -8.9606    5.7656   50.4951 H       1  ZINC000824084043    0.0700
     56 H56        -8.6016    5.3425   48.7916 H       1  ZINC000824084043    0.0800
     57 H57        -8.8784    3.4492   50.7953 H       1  ZINC000824084043    0.0700
     58 H58        -7.8576    3.2027   49.3502 H       1  ZINC000824084043    0.0700
     59 H59        -5.9927    3.1809   50.6712 H       1  ZINC000824084043    0.0700
     60 H60        -7.0134    3.4274   52.1163 H       1  ZINC000824084043    0.0800
     61 H61        -3.9555    6.3870   53.5085 H       1  ZINC000824084043    0.1300
     62 H62        -5.5593    5.6318   53.6621 H       1  ZINC000824084043    0.1300
     63 H63        -4.5498    3.7430   54.9135 H       1  ZINC000824084043    0.0900
     64 H64        -4.2148    5.2954   55.7191 H       1  ZINC000824084043    0.1200
     65 H65         3.0411    3.7232   60.6176 H       1  ZINC000824084043    0.3600
@<TRIPOS>BOND
     1     1     2    1
     2     1    30    1
     3     1    31    1
     4     1    32    1
     5     2     3    1
     6     2     4    1
     7     2    33    1
     8     3    34    1
     9     3    35    1
    10     3    36    1
    11     4     5    1
    12     4     6    1
    13     4    26    1
    14     6     7    1
    15     6    37    1
    16     6    38    1
    17     7     8    1
    18     7    39    1
    19     7    40    1
    20     8     9    1
    21     8    10   am
    22     9    41    1
    23     9    42    1
    24     9    43    1
    25    10    11    2
    26    10    12   am
    27    12    13    1
    28    12    44    1
    29    13    25    1
    30    13    14    1
    31    13    45    1
    32    14    15    1
    33    14    46    1
    34    14    47    1
    35    15    16    1
    36    15    48    1
    37    15    49    1
    38    16    17    1
    39    16    18    1
    40    16    24    1
    41    18    19    1
    42    18    50    1
    43    18    51    1
    44    19    23    1
    45    19    20    1
    46    19    52    1
    47    20    21    1
    48    20    53    1
    49    20    54    1
    50    21    22    1
    51    21    55    1
    52    21    56    1
    53    22    23    1
    54    22    57    1
    55    22    58    1
    56    23    59    1
    57    23    60    1
    58    24    25    1
    59    24    61    1
    60    24    62    1
    61    25    63    1
    62    25    64    1
    63    26    27   am
    64    26    65    1
    65    27    28   ar
    66    27    29   ar
@<TRIPOS>SUBSTRUCTURE
     1 ZINC000824084043        1 TEMP              0 ****  ****    0 ROOT


##########                                Name:    ZINC000962855438
##########                DOCK_Rotatable_Bonds:                   7
##########                         Heavy_Atoms:                  27
##########                    Molecular_Weight:             370.448
##########                DOCK_Rotatable_Bonds:                   7
##########                       Formal_Charge:           0.0300005
##########                     HBond_Acceptors:                   6
##########                        HBond_Donors:                   2
##########                         Heavy_Atoms:                  27
##########                          Grid_Score:          -32.187954
##########                     Grid_vdw_energy:          -31.269279
##########                      Grid_es_energy:           -0.918674
##########           Internal_energy_repulsive:           10.574560

@<TRIPOS>MOLECULE
ZINC000962855438
 53 56 1 0 0
SMALL
USER_CHARGES


@<TRIPOS>ATOM
      1 C1         -4.5379    4.1985   57.5148 C.3     1  ZINC000962855438   -0.1100
      2 C2         -3.1251    3.9528   57.0513 C.2     1  ZINC000962855438   -0.1700
      3 C3         -2.7973    4.0282   55.6194 C.2     1  ZINC000962855438    0.5600
      4 O4         -3.6881    4.0979   54.7944 O.2     1  ZINC000962855438   -0.5400
      5 N5         -1.5096    4.0200   55.2215 N.am    1  ZINC000962855438   -0.7100
      6 C6         -1.1831    4.0934   53.7952 C.3     1  ZINC000962855438    0.1500
      7 H7         -2.0075    3.7195   53.1882 H       1  ZINC000962855438    0.1200
      8 C8          0.1270    3.3269   53.4855 C.3     1  ZINC000962855438    0.1000
      9 N9          0.6512    3.9558   52.2595 N.am    1  ZINC000962855438   -0.6100
     10 C10         1.4802    3.3734   51.3706 C.2     1  ZINC000962855438    0.5800
     11 O11         1.8498    3.9895   50.3898 O.2     1  ZINC000962855438   -0.5200
     12 C12         1.9390    1.9881   51.5878 C.ar    1  ZINC000962855438   -0.1500
     13 C13         2.8632    1.7080   52.5943 C.ar    1  ZINC000962855438   -0.0600
     14 C14         3.2944    0.4150   52.7991 C.ar    1  ZINC000962855438   -0.1500
     15 C15         2.8121   -0.6103   52.0010 C.ar    1  ZINC000962855438   -0.0500
     16 C16         1.9016   -0.3446   51.0026 C.ar    1  ZINC000962855438   -0.1800
     17 C17         1.4408    0.9467   50.7840 C.ar    1  ZINC000962855438    0.1600
     18 O18         0.5361    0.9832   49.7710 O.3     1  ZINC000962855438   -0.2800
     19 C19         0.6735   -0.2026   48.9695 C.3     1  ZINC000962855438    0.0700
     20 H20         1.3834   -0.0404   48.1585 H       1  ZINC000962855438    0.0900
     21 C21        -0.6837   -0.6451   48.4189 C.3     1  ZINC000962855438   -0.1500
     22 C22         1.2190   -1.2376   49.9842 C.3     1  ZINC000962855438   -0.1100
     23 C23         0.1194    5.3233   52.1666 C.3     1  ZINC000962855438    0.0700
     24 C24        -0.8026    5.5407   53.3855 C.3     1  ZINC000962855438    0.0900
     25 H25        -1.6891    6.1081   53.1022 H       1  ZINC000962855438    0.0900
     26 O26        -0.0988    6.1993   54.4406 O.3     1  ZINC000962855438   -0.5600
     27 C27        -2.1748    3.6680   57.9370 C.2     1  ZINC000962855438   -0.0600
     28 C28        -0.6908    3.3710   57.8932 C.3     1  ZINC000962855438   -0.1000
     29 C29        -0.8806    2.5837   59.1992 C.3     1  ZINC000962855438   -0.1400
     30 C30        -2.0927    3.5023   59.4397 C.3     1  ZINC000962855438   -0.1100
     31 H31        -5.0854    3.2561   57.5265 H       1  ZINC000962855438    0.0700
     32 H32        -4.5223    4.6221   58.5191 H       1  ZINC000962855438    0.0700
     33 H33        -5.0277    4.8949   56.8342 H       1  ZINC000962855438    0.0700
     34 H34        -0.7990    3.9656   55.8796 H       1  ZINC000962855438    0.4100
     35 H35         0.8368    3.4423   54.3044 H       1  ZINC000962855438    0.0800
     36 H36        -0.0832    2.2717   53.3103 H       1  ZINC000962855438    0.0900
     37 H37         3.2422    2.5067   53.2148 H       1  ZINC000962855438    0.1400
     38 H38         4.0083    0.2010   53.5808 H       1  ZINC000962855438    0.1400
     39 H39         3.1521   -1.6226   52.1626 H       1  ZINC000962855438    0.1300
     40 H40        -1.0904    0.1396   47.7810 H       1  ZINC000962855438    0.0700
     41 H41        -0.5594   -1.5583   47.8371 H       1  ZINC000962855438    0.0800
     42 H42        -1.3681   -0.8320   49.2464 H       1  ZINC000962855438    0.0700
     43 H43         1.9397   -1.9044   49.5111 H       1  ZINC000962855438    0.1000
     44 H44         0.4058   -1.8040   50.4381 H       1  ZINC000962855438    0.1000
     45 H45         0.9386    6.0419   52.1882 H       1  ZINC000962855438    0.0800
     46 H46        -0.4521    5.4371   51.2454 H       1  ZINC000962855438    0.0800
     47 H47         0.3177    7.0310   54.1763 H       1  ZINC000962855438    0.3900
     48 H48        -0.3957    2.7487   57.0484 H       1  ZINC000962855438    0.0900
     49 H49        -0.0657    4.2568   58.0055 H       1  ZINC000962855438    0.1000
     50 H50        -1.1404    1.5360   59.0480 H       1  ZINC000962855438    0.0900
     51 H51        -0.0747    2.7246   59.9194 H       1  ZINC000962855438    0.0800
     52 H52        -1.8442    4.4214   59.9705 H       1  ZINC000962855438    0.1000
     53 H53        -2.9527    2.9862   59.8664 H       1  ZINC000962855438    0.0800
@<TRIPOS>BOND
     1     1     2    1
     2     1    31    1
     3     1    32    1
     4     1    33    1
     5     2     3    1
     6     2    27    2
     7     3     4    2
     8     3     5   am
     9     5     6    1
    10     5    34    1
    11     6     7    1
    12     6    24    1
    13     6     8    1
    14     8     9    1
    15     8    35    1
    16     8    36    1
    17     9    10   am
    18     9    23    1
    19    10    11    2
    20    10    12    1
    21    12    17   ar
    22    12    13   ar
    23    13    14   ar
    24    13    37    1
    25    14    15   ar
    26    14    38    1
    27    15    16   ar
    28    15    39    1
    29    16    22    1
    30    16    17   ar
    31    17    18    1
    32    18    19    1
    33    19    20    1
    34    19    21    1
    35    19    22    1
    36    21    40    1
    37    21    41    1
    38    21    42    1
    39    22    43    1
    40    22    44    1
    41    23    24    1
    42    23    45    1
    43    23    46    1
    44    24    25    1
    45    24    26    1
    46    26    47    1
    47    27    30    1
    48    27    28    1
    49    28    29    1
    50    28    48    1
    51    28    49    1
    52    29    30    1
    53    29    50    1
    54    29    51    1
    55    30    52    1
    56    30    53    1
@<TRIPOS>SUBSTRUCTURE
     1 ZINC000962855438        1 TEMP              0 ****  ****    0 ROOT


##########                                Name:    ZINC000277085192
##########                DOCK_Rotatable_Bonds:                   4
##########                         Heavy_Atoms:                  23
##########                    Molecular_Weight:             335.747
##########                DOCK_Rotatable_Bonds:                   4
##########                       Formal_Charge:         5.96046e-08
##########                     HBond_Acceptors:                   8
##########                        HBond_Donors:                   2
##########                         Heavy_Atoms:                  23
##########                          Grid_Score:          -32.175388
##########                     Grid_vdw_energy:          -28.731529
##########                      Grid_es_energy:           -3.443859
##########           Internal_energy_repulsive:            8.006327

@<TRIPOS>MOLECULE
ZINC000277085192
 37 39 1 0 0
SMALL
USER_CHARGES


@<TRIPOS>ATOM
      1 O1        -11.6511    1.1061   60.0562 O.2     1  ZINC000277085192   -0.5000
      2 C2        -11.5707    0.6671   61.1841 C.2     1  ZINC000277085192    0.5000
      3 C3        -11.2202    1.5850   62.3267 C.3     1  ZINC000277085192    0.1100
      4 N4        -10.4032    0.8598   63.3027 N.am    1  ZINC000277085192   -0.6000
      5 C5         -9.1373    0.2582   62.8795 C.3     1  ZINC000277085192    0.1100
      6 C6         -8.1135    0.3715   64.0113 C.3     1  ZINC000277085192   -0.1600
      7 C7         -8.7571   -0.0561   65.3064 C.2     1  ZINC000277085192    0.5200
      8 O8         -8.1013   -0.6304   66.1488 O.2     1  ZINC000277085192   -0.5000
      9 N9        -10.0595    0.2008   65.5266 N.am    1  ZINC000277085192   -0.6700
     10 C10       -10.8232    0.7610   64.5745 C.2     1  ZINC000277085192    0.7200
     11 O11       -11.9251    1.1810   64.8689 O.2     1  ZINC000277085192   -0.5500
     12 N12       -11.8003   -0.6405   61.4162 N.am    1  ZINC000277085192   -0.6700
     13 C13       -12.1260   -1.4934   60.3546 C.ar    1  ZINC000277085192    0.1400
     14 C14       -13.4366   -1.8900   60.1637 C.ar    1  ZINC000277085192   -0.0400
     15 C15       -13.7635   -2.7455   59.1001 C.ar    1  ZINC000277085192   -0.1700
     16 C16       -12.7562   -3.1883   58.2421 C.ar    1  ZINC000277085192   -0.0500
     17 C17       -11.4496   -2.7847   58.4429 C.ar    1  ZINC000277085192   -0.0900
     18 C18       -11.1312   -1.9375   59.4885 C.ar    1  ZINC000277085192   -0.0300
     19 Cl19       -9.4861   -1.4383   59.7294 Cl      1  ZINC000277085192   -0.0500
     20 C20       -13.3509   -4.0895   57.1862 C.3     1  ZINC000277085192   -0.0800
     21 C21       -14.8555   -4.1631   57.4800 C.3     1  ZINC000277085192   -0.1700
     22 C22       -15.0674   -3.2977   58.6983 C.2     1  ZINC000277085192    0.4100
     23 O23       -16.1276   -3.0926   59.2500 O.2     1  ZINC000277085192   -0.4300
     24 H24       -10.6601    2.4397   61.9474 H       1  ZINC000277085192    0.1300
     25 H25       -12.1349    1.9338   62.8062 H       1  ZINC000277085192    0.1200
     26 H26        -9.2974   -0.7927   62.6385 H       1  ZINC000277085192    0.0800
     27 H27        -8.7640    0.7799   61.9983 H       1  ZINC000277085192    0.1000
     28 H28        -7.2614   -0.2738   63.7976 H       1  ZINC000277085192    0.1300
     29 H29        -7.7768    1.4048   64.0957 H       1  ZINC000277085192    0.1200
     30 H30       -10.4510   -0.0187   66.3865 H       1  ZINC000277085192    0.4300
     31 H31       -11.7398   -0.9908   62.3187 H       1  ZINC000277085192    0.4200
     32 H32       -14.2090   -1.5417   60.8333 H       1  ZINC000277085192    0.1500
     33 H33       -10.6729   -3.1300   57.7767 H       1  ZINC000277085192    0.1500
     34 H34       -13.1831   -3.6668   56.1956 H       1  ZINC000277085192    0.1000
     35 H35       -12.9080   -5.0834   57.2497 H       1  ZINC000277085192    0.1000
     36 H36       -15.4245   -3.7730   56.6360 H       1  ZINC000277085192    0.1100
     37 H37       -15.1491   -5.1913   57.6914 H       1  ZINC000277085192    0.1100
@<TRIPOS>BOND
     1     1     2    2
     2     2     3    1
     3     2    12   am
     4     3     4    1
     5     3    24    1
     6     3    25    1
     7     4    10   am
     8     4     5    1
     9     5     6    1
    10     5    26    1
    11     5    27    1
    12     6     7    1
    13     6    28    1
    14     6    29    1
    15     7     8    2
    16     7     9   am
    17     9    10   am
    18     9    30    1
    19    10    11    2
    20    12    13    1
    21    12    31    1
    22    13    18   ar
    23    13    14   ar
    24    14    15   ar
    25    14    32    1
    26    15    22    1
    27    15    16   ar
    28    16    17   ar
    29    16    20    1
    30    17    18   ar
    31    17    33    1
    32    18    19    1
    33    20    21    1
    34    20    34    1
    35    20    35    1
    36    21    22    1
    37    21    36    1
    38    21    37    1
    39    22    23    2
@<TRIPOS>SUBSTRUCTURE
     1 ZINC000277085192        1 TEMP              0 ****  ****    0 ROOT


##########                                Name:    ZINC001058079801
##########                DOCK_Rotatable_Bonds:                   7
##########                         Heavy_Atoms:                  24
##########                    Molecular_Weight:             349.457
##########                DOCK_Rotatable_Bonds:                   7
##########                       Formal_Charge:           0.0200001
##########                     HBond_Acceptors:                   8
##########                        HBond_Donors:                   0
##########                         Heavy_Atoms:                  24
##########                          Grid_Score:          -32.169750
##########                     Grid_vdw_energy:          -30.381969
##########                      Grid_es_energy:           -1.787781
##########           Internal_energy_repulsive:           15.602336

@<TRIPOS>MOLECULE
ZINC001058079801
 47 49 1 0 0
SMALL
USER_CHARGES


@<TRIPOS>ATOM
      1 C1         -7.6342    0.6004   53.4024 C.3     1  ZINC001058079801   -0.1500
      2 C2         -8.3576   -0.5987   52.7859 C.3     1  ZINC001058079801   -0.1200
      3 C3         -9.8622   -0.4673   53.0305 C.3     1  ZINC001058079801   -0.0300
      4 C4        -10.1688   -0.8029   54.4674 C.2     1  ZINC001058079801    0.2900
      5 N5        -10.5614   -1.9955   54.8092 N.2     1  ZINC001058079801   -0.4800
      6 S6        -10.7918   -1.9410   56.4921 S.3     1  ZINC001058079801    0.1900
      7 C7        -10.3378   -0.2854   56.6395 C.2     1  ZINC001058079801    0.2700
      8 N8        -10.2882    0.4747   57.7940 N.3     1  ZINC001058079801   -0.4300
      9 C9         -8.9733    0.3672   58.4388 C.3     1  ZINC001058079801    0.0700
     10 C10        -8.9060    1.3298   59.6267 C.3     1  ZINC001058079801   -0.1300
     11 C11       -10.0143    0.9804   60.6238 C.3     1  ZINC001058079801    0.1300
     12 N12        -9.9917    1.9348   61.7351 N.am    1  ZINC001058079801   -0.6100
     13 C13       -10.4719    3.3042   61.5345 C.3     1  ZINC001058079801    0.0700
     14 C14        -9.5291    1.5529   62.9420 C.2     1  ZINC001058079801    0.5200
     15 O15        -9.5089    2.3434   63.8616 O.2     1  ZINC001058079801   -0.5300
     16 C16        -9.0368    0.1437   63.1489 C.3     1  ZINC001058079801   -0.0600
     17 C17        -8.5711   -0.0219   64.5725 C.2     1  ZINC001058079801   -0.1900
     18 C18        -7.3273    0.1744   65.0713 C.2     1  ZINC001058079801   -0.0400
     19 O19        -7.3975   -0.0947   66.3826 O.3     1  ZINC001058079801    0.1000
     20 N20        -8.5149   -0.4204   66.7104 N.2     1  ZINC001058079801   -0.3600
     21 C21        -9.3330   -0.4120   65.6979 C.2     1  ZINC001058079801    0.0000
     22 C22       -11.3695    1.0528   59.9147 C.3     1  ZINC001058079801   -0.1200
     23 C23       -11.3653    0.0982   58.7184 C.3     1  ZINC001058079801    0.0400
     24 N24       -10.0429    0.0971   55.4149 N.2     1  ZINC001058079801   -0.5300
     25 H25        -6.5623    0.5068   53.2283 H       1  ZINC001058079801    0.0600
     26 H26        -7.9981    1.5195   52.9434 H       1  ZINC001058079801    0.0600
     27 H27        -7.8270    0.6289   54.4749 H       1  ZINC001058079801    0.0600
     28 H28        -8.1649   -0.6271   51.7135 H       1  ZINC001058079801    0.0700
     29 H29        -7.9938   -1.5178   53.2451 H       1  ZINC001058079801    0.0700
     30 H30       -10.1765    0.5553   52.8212 H       1  ZINC001058079801    0.1000
     31 H31       -10.3982   -1.1535   52.3749 H       1  ZINC001058079801    0.0900
     32 H32        -8.8232   -0.6538   58.7897 H       1  ZINC001058079801    0.0600
     33 H33        -8.1945    0.6222   57.7202 H       1  ZINC001058079801    0.1000
     34 H34        -7.9356    1.2385   60.1146 H       1  ZINC001058079801    0.0800
     35 H35        -9.0423    2.3523   59.2747 H       1  ZINC001058079801    0.0800
     36 H36        -9.8556   -0.0278   61.0063 H       1  ZINC001058079801    0.1000
     37 H37       -11.5382    3.3514   61.7552 H       1  ZINC001058079801    0.0600
     38 H38        -9.9330    3.9793   62.1993 H       1  ZINC001058079801    0.0800
     39 H39       -10.3016    3.6010   60.4995 H       1  ZINC001058079801    0.0800
     40 H40        -9.8469   -0.5573   62.9476 H       1  ZINC001058079801    0.1100
     41 H41        -8.2075   -0.0548   62.4699 H       1  ZINC001058079801    0.1100
     42 H42        -6.4518    0.4860   64.5212 H       1  ZINC001058079801    0.2200
     43 H43       -10.3839   -0.6605   65.7131 H       1  ZINC001058079801    0.1900
     44 H44       -12.1590    0.7635   60.6083 H       1  ZINC001058079801    0.0900
     45 H45       -11.5445    2.0709   59.5672 H       1  ZINC001058079801    0.0800
     46 H46       -12.3239    0.1579   58.2029 H       1  ZINC001058079801    0.1000
     47 H47       -11.2040   -0.9215   59.0681 H       1  ZINC001058079801    0.0700
@<TRIPOS>BOND
     1     1     2    1
     2     1    25    1
     3     1    26    1
     4     1    27    1
     5     2     3    1
     6     2    28    1
     7     2    29    1
     8     3     4    1
     9     3    30    1
    10     3    31    1
    11     4    24    1
    12     4     5    2
    13     5     6    1
    14     6     7    1
    15     7     8    1
    16     7    24    2
    17     8    23    1
    18     8     9    1
    19     9    10    1
    20     9    32    1
    21     9    33    1
    22    10    11    1
    23    10    34    1
    24    10    35    1
    25    11    12    1
    26    11    22    1
    27    11    36    1
    28    12    13    1
    29    12    14   am
    30    13    37    1
    31    13    38    1
    32    13    39    1
    33    14    15    2
    34    14    16    1
    35    16    17    1
    36    16    40    1
    37    16    41    1
    38    17    21    1
    39    17    18    2
    40    18    19    1
    41    18    42    1
    42    19    20    1
    43    20    21    2
    44    21    43    1
    45    22    23    1
    46    22    44    1
    47    22    45    1
    48    23    46    1
    49    23    47    1
@<TRIPOS>SUBSTRUCTURE
     1 ZINC001058079801        1 TEMP              0 ****  ****    0 ROOT


##########                                Name:    ZINC000051488227
##########                DOCK_Rotatable_Bonds:                   8
##########                         Heavy_Atoms:                  30
##########                    Molecular_Weight:             403.478
##########                DOCK_Rotatable_Bonds:                   8
##########                       Formal_Charge:           0.0199996
##########                     HBond_Acceptors:                   5
##########                        HBond_Donors:                   0
##########                         Heavy_Atoms:                  30
##########                          Grid_Score:          -32.158894
##########                     Grid_vdw_energy:          -30.608046
##########                      Grid_es_energy:           -1.550849
##########           Internal_energy_repulsive:           23.961155

@<TRIPOS>MOLECULE
ZINC000051488227
 55 58 1 0 0
SMALL
USER_CHARGES


@<TRIPOS>ATOM
      1 O1        -11.6325    0.3272   57.7878 O.2     1  ZINC000051488227   -0.5000
      2 C2        -10.5852   -0.2079   58.0651 C.2     1  ZINC000051488227    0.4800
      3 O3        -10.3252   -1.4464   57.6176 O.3     1  ZINC000051488227   -0.3400
      4 C4        -11.4067   -2.1455   56.9469 C.3     1  ZINC000051488227    0.1100
      5 C5        -11.5531   -1.6160   55.5435 C.ar    1  ZINC000051488227   -0.1400
      6 C6        -12.7586   -1.0795   55.1305 C.ar    1  ZINC000051488227   -0.0500
      7 C7        -12.8953   -0.5935   53.8446 C.ar    1  ZINC000051488227   -0.1500
      8 C8        -11.8215   -0.6437   52.9676 C.ar    1  ZINC000051488227    0.1500
      9 O9        -11.9534   -0.1659   51.7022 O.3     1  ZINC000051488227   -0.3100
     10 C10       -13.2248    0.3790   51.3437 C.3     1  ZINC000051488227    0.1100
     11 C11       -13.1655    0.9069   49.9334 C.ar    1  ZINC000051488227    0.1200
     12 C12       -13.4869    0.0743   48.8786 C.ar    1  ZINC000051488227   -0.1500
     13 C13       -13.4296    0.5700   47.5847 C.ar    1  ZINC000051488227   -0.0700
     14 C14       -13.0496    1.8904   47.4003 C.ar    1  ZINC000051488227   -0.1700
     15 C15       -12.7425    2.6634   48.5044 C.ar    1  ZINC000051488227    0.1100
     16 N16       -12.8129    2.1598   49.7209 N.ar    1  ZINC000051488227   -0.4800
     17 C17       -10.6129   -1.1821   53.3846 C.ar    1  ZINC000051488227   -0.2100
     18 C18       -10.4799   -1.6624   54.6730 C.ar    1  ZINC000051488227   -0.0500
     19 C19        -9.5684    0.5177   58.9082 C.3     1  ZINC000051488227    0.0000
     20 C20        -8.6442    1.3058   58.0161 C.ar    1  ZINC000051488227   -0.0900
     21 C21        -8.8245    1.2876   56.6457 C.ar    1  ZINC000051488227   -0.1100
     22 C22        -7.9767    2.0106   55.8274 C.ar    1  ZINC000051488227   -0.1200
     23 C23        -6.9491    2.7521   56.3796 C.ar    1  ZINC000051488227   -0.1100
     24 C24        -6.7694    2.7710   57.7501 C.ar    1  ZINC000051488227   -0.1200
     25 C25        -7.6197    2.0515   58.5687 C.ar    1  ZINC000051488227   -0.1000
     26 C26       -10.2860    1.4673   59.8723 C.3     1  ZINC000051488227   -0.1400
     27 C27       -11.1625    0.6491   60.8242 C.3     1  ZINC000051488227    0.0600
     28 O28       -10.3504   -0.2960   61.5237 O.3     1  ZINC000051488227   -0.3800
     29 C29        -9.6920   -1.2397   60.6761 C.3     1  ZINC000051488227    0.0500
     30 C30        -8.7564   -0.4973   59.7184 C.3     1  ZINC000051488227   -0.1400
     31 H31       -11.1834   -3.2118   56.9115 H       1  ZINC000051488227    0.0800
     32 H32       -12.3362   -1.9868   57.4938 H       1  ZINC000051488227    0.0800
     33 H33       -13.5942   -1.0407   55.8137 H       1  ZINC000051488227    0.1300
     34 H34       -13.8373   -0.1752   53.5223 H       1  ZINC000051488227    0.1400
     35 H35       -13.9851   -0.3995   51.4087 H       1  ZINC000051488227    0.0900
     36 H36       -13.4773    1.1912   52.0254 H       1  ZINC000051488227    0.0900
     37 H37       -13.7786   -0.9497   49.0593 H       1  ZINC000051488227    0.1400
     38 H38       -13.6749   -0.0577   46.7408 H       1  ZINC000051488227    0.1400
     39 H39       -12.9936    2.3097   46.4066 H       1  ZINC000051488227    0.1400
     40 H40       -12.4452    3.6929   48.3691 H       1  ZINC000051488227    0.1600
     41 H41        -9.7757   -1.2226   52.7036 H       1  ZINC000051488227    0.1300
     42 H42        -9.5390   -2.0813   54.9983 H       1  ZINC000051488227    0.1300
     43 H43        -9.6274    0.7083   56.2143 H       1  ZINC000051488227    0.1300
     44 H44        -8.1171    1.9958   54.7567 H       1  ZINC000051488227    0.1300
     45 H45        -6.2863    3.3164   55.7402 H       1  ZINC000051488227    0.1200
     46 H46        -5.9663    3.3501   58.1815 H       1  ZINC000051488227    0.1200
     47 H47        -7.4793    2.0663   59.6394 H       1  ZINC000051488227    0.1300
     48 H48        -9.5490    2.0281   60.4473 H       1  ZINC000051488227    0.0900
     49 H49       -10.9101    2.1585   59.3059 H       1  ZINC000051488227    0.0900
     50 H50       -11.6425    1.3161   61.5402 H       1  ZINC000051488227    0.1000
     51 H51       -11.9249    0.1203   60.2522 H       1  ZINC000051488227    0.0500
     52 H52        -9.1126   -1.9332   61.2856 H       1  ZINC000051488227    0.1000
     53 H53       -10.4351   -1.7932   60.1023 H       1  ZINC000051488227    0.0700
     54 H54        -8.2866   -1.2112   59.0418 H       1  ZINC000051488227    0.0900
     55 H55        -7.9885    0.0238   60.2902 H       1  ZINC000051488227    0.0900
@<TRIPOS>BOND
     1     1     2    2
     2     2     3    1
     3     2    19    1
     4     3     4    1
     5     4     5    1
     6     4    31    1
     7     4    32    1
     8     5    18   ar
     9     5     6   ar
    10     6     7   ar
    11     6    33    1
    12     7     8   ar
    13     7    34    1
    14     8     9    1
    15     8    17   ar
    16     9    10    1
    17    10    11    1
    18    10    35    1
    19    10    36    1
    20    11    16   ar
    21    11    12   ar
    22    12    13   ar
    23    12    37    1
    24    13    14   ar
    25    13    38    1
    26    14    15   ar
    27    14    39    1
    28    15    16   ar
    29    15    40    1
    30    17    18   ar
    31    17    41    1
    32    18    42    1
    33    19    30    1
    34    19    20    1
    35    19    26    1
    36    20    25   ar
    37    20    21   ar
    38    21    22   ar
    39    21    43    1
    40    22    23   ar
    41    22    44    1
    42    23    24   ar
    43    23    45    1
    44    24    25   ar
    45    24    46    1
    46    25    47    1
    47    26    27    1
    48    26    48    1
    49    26    49    1
    50    27    28    1
    51    27    50    1
    52    27    51    1
    53    28    29    1
    54    29    30    1
    55    29    52    1
    56    29    53    1
    57    30    54    1
    58    30    55    1
@<TRIPOS>SUBSTRUCTURE
     1 ZINC000051488227        1 TEMP              0 ****  ****    0 ROOT


##########                                Name:    ZINC000451019064
##########                DOCK_Rotatable_Bonds:                   8
##########                         Heavy_Atoms:                  23
##########                    Molecular_Weight:             346.534
##########                DOCK_Rotatable_Bonds:                   8
##########                       Formal_Charge:          -0.0200008
##########                     HBond_Acceptors:                   6
##########                        HBond_Donors:                   1
##########                         Heavy_Atoms:                  23
##########                          Grid_Score:          -32.149521
##########                     Grid_vdw_energy:          -31.904360
##########                      Grid_es_energy:           -0.245162
##########           Internal_energy_repulsive:            7.329323

@<TRIPOS>MOLECULE
ZINC000451019064
 57 58 1 0 0
SMALL
USER_CHARGES


@<TRIPOS>ATOM
      1 C1          1.1922   -1.3702   48.8715 C.3     1  ZINC000451019064   -0.1500
      2 C2          1.3294   -0.7168   50.2482 C.3     1  ZINC000451019064    0.0900
      3 H3          0.4626   -0.9692   50.8588 H       1  ZINC000451019064    0.0700
      4 C4          1.4158    0.8032   50.0862 C.3     1  ZINC000451019064    0.0200
      5 N5          1.6248    1.4201   51.4042 N.3     1  ZINC000451019064   -0.5400
      6 C6          1.6566    2.8850   51.3006 C.3     1  ZINC000451019064    0.0600
      7 C7          0.2640    3.4474   51.5929 C.3     1  ZINC000451019064   -0.1300
      8 C8         -0.0135    3.3668   53.0954 C.3     1  ZINC000451019064    0.1100
      9 N9         -1.4588    3.4199   53.3286 N.am    1  ZINC000451019064   -1.1200
     10 S10        -2.1357    4.7586   54.0299 S.o2    1  ZINC000451019064    2.6100
     11 O11        -1.7342    5.8340   53.1923 O.2     1  ZINC000451019064   -0.9600
     12 O12        -3.5075    4.4198   54.1802 O.2     1  ZINC000451019064   -0.9500
     13 C13        -1.3284    4.8780   55.6500 C.3     1  ZINC000451019064   -0.6300
     14 C14        -1.5881    3.5969   56.4450 C.3     1  ZINC000451019064   -0.1100
     15 C15        -1.0973    3.7802   57.8824 C.3     1  ZINC000451019064   -0.0800
     16 C16        -1.5114    2.5694   58.7210 C.3     1  ZINC000451019064   -0.1200
     17 C17        -1.0207    2.7528   60.1586 C.3     1  ZINC000451019064   -0.1200
     18 C18         0.5040    2.8798   60.1646 C.3     1  ZINC000451019064   -0.1200
     19 C19         0.9183    4.0906   59.3260 C.3     1  ZINC000451019064   -0.1200
     20 C20         0.4274    3.9073   57.8884 C.3     1  ZINC000451019064   -0.1200
     21 C21         2.8533    0.9092   52.0296 C.3     1  ZINC000451019064    0.0200
     22 C22         2.7526   -0.6118   52.1720 C.3     1  ZINC000451019064    0.0900
     23 H23         1.9276   -0.8611   52.8392 H       1  ZINC000451019064    0.0700
     24 C24         4.0597   -1.1586   52.7494 C.3     1  ZINC000451019064   -0.1500
     25 O25         2.5178   -1.1923   50.8862 O.3     1  ZINC000451019064   -0.3800
     26 H26         1.1324   -2.4524   48.9873 H       1  ZINC000451019064    0.0700
     27 H27         0.2872   -1.0062   48.3852 H       1  ZINC000451019064    0.0700
     28 H28         2.0593   -1.1175   48.2613 H       1  ZINC000451019064    0.0600
     29 H29         2.2504    1.0526   49.4311 H       1  ZINC000451019064    0.0400
     30 H30         0.4879    1.1762   49.6528 H       1  ZINC000451019064    0.0900
     31 H31         2.3688    3.2849   52.0225 H       1  ZINC000451019064    0.0400
     32 H32         1.9601    3.1716   50.2937 H       1  ZINC000451019064    0.0800
     33 H33         0.2170    4.4873   51.2700 H       1  ZINC000451019064    0.0800
     34 H34        -0.4834    2.8653   51.0537 H       1  ZINC000451019064    0.0800
     35 H35         0.3839    2.4309   53.4885 H       1  ZINC000451019064    0.0800
     36 H36         0.4670    4.2055   53.5990 H       1  ZINC000451019064    0.0700
     37 H37        -2.0193    2.6709   53.0721 H       1  ZINC000451019064    0.4200
     38 H38        -0.2550    5.0090   55.5123 H       1  ZINC000451019064    0.1300
     39 H39        -1.7315    5.7317   56.1948 H       1  ZINC000451019064    0.1400
     40 H40        -2.6569    3.3830   56.4504 H       1  ZINC000451019064    0.0800
     41 H41        -1.0539    2.7672   55.9817 H       1  ZINC000451019064    0.0800
     42 H42        -1.5388    4.6828   58.3047 H       1  ZINC000451019064    0.0800
     43 H43        -2.5977    2.4789   58.7168 H       1  ZINC000451019064    0.0600
     44 H44        -1.0700    1.6668   58.2987 H       1  ZINC000451019064    0.0700
     45 H45        -1.4621    3.6554   60.5808 H       1  ZINC000451019064    0.0600
     46 H46        -1.3157    1.8902   60.7561 H       1  ZINC000451019064    0.0600
     47 H47         0.8537    3.0104   61.1887 H       1  ZINC000451019064    0.0600
     48 H48         0.9455    1.9772   59.7423 H       1  ZINC000451019064    0.0600
     49 H49         0.4768    4.9933   59.7482 H       1  ZINC000451019064    0.0600
     50 H50         2.0045    4.1812   59.3303 H       1  ZINC000451019064    0.0600
     51 H51         0.8689    3.0046   57.4661 H       1  ZINC000451019064    0.0700
     52 H52         0.7225    4.7699   57.2910 H       1  ZINC000451019064    0.0600
     53 H53         3.7109    1.1603   51.4055 H       1  ZINC000451019064    0.0400
     54 H54         2.9748    1.3597   53.0146 H       1  ZINC000451019064    0.0900
     55 H55         4.2389   -0.7134   53.7281 H       1  ZINC000451019064    0.0700
     56 H56         3.9874   -2.2415   52.8505 H       1  ZINC000451019064    0.0700
     57 H57         4.8841   -0.9104   52.0809 H       1  ZINC000451019064    0.0600
@<TRIPOS>BOND
     1     1     2    1
     2     1    26    1
     3     1    27    1
     4     1    28    1
     5     2     3    1
     6     2    25    1
     7     2     4    1
     8     4     5    1
     9     4    29    1
    10     4    30    1
    11     5     6    1
    12     5    21    1
    13     6     7    1
    14     6    31    1
    15     6    32    1
    16     7     8    1
    17     7    33    1
    18     7    34    1
    19     8     9    1
    20     8    35    1
    21     8    36    1
    22     9    10   am
    23     9    37    1
    24    10    11    2
    25    10    12    2
    26    10    13    1
    27    13    14    1
    28    13    38    1
    29    13    39    1
    30    14    15    1
    31    14    40    1
    32    14    41    1
    33    15    20    1
    34    15    16    1
    35    15    42    1
    36    16    17    1
    37    16    43    1
    38    16    44    1
    39    17    18    1
    40    17    45    1
    41    17    46    1
    42    18    19    1
    43    18    47    1
    44    18    48    1
    45    19    20    1
    46    19    49    1
    47    19    50    1
    48    20    51    1
    49    20    52    1
    50    21    22    1
    51    21    53    1
    52    21    54    1
    53    22    23    1
    54    22    24    1
    55    22    25    1
    56    24    55    1
    57    24    56    1
    58    24    57    1
@<TRIPOS>SUBSTRUCTURE
     1 ZINC000451019064        1 TEMP              0 ****  ****    0 ROOT


##########                                Name:    ZINC000428748914
##########                DOCK_Rotatable_Bonds:                  11
##########                         Heavy_Atoms:                  30
##########                    Molecular_Weight:             413.492
##########                DOCK_Rotatable_Bonds:                  11
##########                       Formal_Charge:           0.0199993
##########                     HBond_Acceptors:                   7
##########                        HBond_Donors:                   3
##########                         Heavy_Atoms:                  30
##########                          Grid_Score:          -32.148186
##########                     Grid_vdw_energy:          -30.594868
##########                      Grid_es_energy:           -1.553318
##########           Internal_energy_repulsive:           12.654682

@<TRIPOS>MOLECULE
ZINC000428748914
 58 61 1 0 0
SMALL
USER_CHARGES


@<TRIPOS>ATOM
      1 O1         -7.3656    3.5169   59.0738 O.2     1  ZINC000428748914   -0.5900
      2 C2         -7.0959    2.6151   58.3041 C.2     1  ZINC000428748914    0.7000
      3 N3         -6.0797    2.7563   57.4301 N.am    1  ZINC000428748914   -0.7400
      4 C4         -5.3039    3.9988   57.4034 C.3     1  ZINC000428748914    0.1900
      5 C5         -4.1790    3.9102   58.4024 C.ar    1  ZINC000428748914   -0.2000
      6 C6         -4.2383    4.6249   59.5906 C.ar    1  ZINC000428748914   -0.0200
      7 C7         -3.1837    4.5150   60.4804 C.ar    1  ZINC000428748914   -0.1900
      8 C8         -2.1083    3.6983   60.1561 C.ar    1  ZINC000428748914    0.3300
      9 O9         -1.0686    3.5817   61.0200 O.3     1  ZINC000428748914   -0.3000
     10 C10        -0.0692    2.6102   60.7049 C.3     1  ZINC000428748914    0.0800
     11 C11         0.9230    3.1733   59.6572 C.3     1  ZINC000428748914   -0.1400
     12 C12         2.1910    2.3152   59.8915 C.3     1  ZINC000428748914   -0.1200
     13 C13         2.2460    2.1316   61.4222 C.3     1  ZINC000428748914   -0.1200
     14 C14         0.8090    2.3192   61.9394 C.3     1  ZINC000428748914   -0.1200
     15 N15        -2.0882    3.0325   59.0132 N.ar    1  ZINC000428748914   -0.5400
     16 C16        -3.0809    3.1125   58.1479 C.ar    1  ZINC000428748914    0.1600
     17 N17        -7.8096    1.4721   58.3286 N.am    1  ZINC000428748914   -0.7400
     18 C18        -8.9142    1.3185   59.2787 C.3     1  ZINC000428748914    0.1800
     19 C19        -9.7226    0.0690   58.9232 C.3     1  ZINC000428748914   -0.1300
     20 C20        -9.6168   -1.0901   59.9162 C.3     1  ZINC000428748914    0.1100
     21 O21        -8.2424   -1.4360   60.1001 O.3     1  ZINC000428748914   -0.5700
     22 C22        -9.8664   -0.2811   57.4408 C.3     1  ZINC000428748914   -0.1400
     23 C23       -11.0637    0.2729   58.2157 C.3     1  ZINC000428748914   -0.1000
     24 H24       -11.3702    1.2972   58.0035 H       1  ZINC000428748914    0.1200
     25 C25       -12.1795   -0.6835   58.5494 C.ar    1  ZINC000428748914   -0.0700
     26 C26       -12.7282   -0.6890   59.8182 C.ar    1  ZINC000428748914   -0.0900
     27 C27       -13.7514   -1.5657   60.1254 C.ar    1  ZINC000428748914   -0.1500
     28 C28       -14.2273   -2.4383   59.1615 C.ar    1  ZINC000428748914    0.1000
     29 F29       -15.2280   -3.2955   59.4604 F       1  ZINC000428748914   -0.1400
     30 C30       -13.6773   -2.4316   57.8908 C.ar    1  ZINC000428748914   -0.1500
     31 C31       -12.6573   -1.5508   57.5847 C.ar    1  ZINC000428748914   -0.0800
     32 H32        -5.8620    2.0354   56.8187 H       1  ZINC000428748914    0.4000
     33 H33        -4.8924    4.1489   56.4053 H       1  ZINC000428748914    0.0800
     34 H34        -5.9517    4.8373   57.6591 H       1  ZINC000428748914    0.0800
     35 H35        -5.0877    5.2528   59.8157 H       1  ZINC000428748914    0.1400
     36 H36        -3.1967    5.0575   61.4142 H       1  ZINC000428748914    0.1400
     37 H37        -0.5316    1.6927   60.3408 H       1  ZINC000428748914    0.1000
     38 H38         0.5406    3.0296   58.6467 H       1  ZINC000428748914    0.0700
     39 H39         1.1289    4.2267   59.8472 H       1  ZINC000428748914    0.0800
     40 H40         2.0955    1.3498   59.3946 H       1  ZINC000428748914    0.0700
     41 H41         3.0781    2.8410   59.5382 H       1  ZINC000428748914    0.0700
     42 H42         2.6029    1.1308   61.6656 H       1  ZINC000428748914    0.0700
     43 H43         2.9029    2.8805   61.8646 H       1  ZINC000428748914    0.0700
     44 H44         0.7684    3.1591   62.6329 H       1  ZINC000428748914    0.0800
     45 H45         0.4684    1.4094   62.4338 H       1  ZINC000428748914    0.0700
     46 H46        -3.0300    2.5542   57.2249 H       1  ZINC000428748914    0.1600
     47 H47        -7.5919    0.7511   57.7173 H       1  ZINC000428748914    0.3900
     48 H48        -8.5143    1.2177   60.2876 H       1  ZINC000428748914    0.0700
     49 H49        -9.5601    2.1952   59.2297 H       1  ZINC000428748914    0.0900
     50 H50       -10.0470   -0.7903   60.8718 H       1  ZINC000428748914    0.0500
     51 H51       -10.1595   -1.9519   59.5280 H       1  ZINC000428748914    0.0600
     52 H52        -7.7765   -0.8729   60.7332 H       1  ZINC000428748914    0.3800
     53 H53        -9.3852    0.3787   56.7188 H       1  ZINC000428748914    0.1100
     54 H54        -9.8856   -1.3375   57.1726 H       1  ZINC000428748914    0.1100
     55 H55       -12.3568   -0.0082   60.5699 H       1  ZINC000428748914    0.1400
     56 H56       -14.1795   -1.5703   61.1168 H       1  ZINC000428748914    0.1400
     57 H57       -14.0475   -3.1121   57.1383 H       1  ZINC000428748914    0.1400
     58 H58       -12.2284   -1.5451   56.5935 H       1  ZINC000428748914    0.1300
@<TRIPOS>BOND
     1     1     2    2
     2     2     3   am
     3     2    17   am
     4     3     4    1
     5     3    32    1
     6     4     5    1
     7     4    33    1
     8     4    34    1
     9     5    16   ar
    10     5     6   ar
    11     6     7   ar
    12     6    35    1
    13     7     8   ar
    14     7    36    1
    15     8     9    1
    16     8    15   ar
    17     9    10    1
    18    10    14    1
    19    10    11    1
    20    10    37    1
    21    11    12    1
    22    11    38    1
    23    11    39    1
    24    12    13    1
    25    12    40    1
    26    12    41    1
    27    13    14    1
    28    13    42    1
    29    13    43    1
    30    14    44    1
    31    14    45    1
    32    15    16   ar
    33    16    46    1
    34    17    18    1
    35    17    47    1
    36    18    19    1
    37    18    48    1
    38    18    49    1
    39    19    23    1
    40    19    20    1
    41    19    22    1
    42    20    21    1
    43    20    50    1
    44    20    51    1
    45    21    52    1
    46    22    23    1
    47    22    53    1
    48    22    54    1
    49    23    24    1
    50    23    25    1
    51    25    31   ar
    52    25    26   ar
    53    26    27   ar
    54    26    55    1
    55    27    28   ar
    56    27    56    1
    57    28    29    1
    58    28    30   ar
    59    30    31   ar
    60    30    57    1
    61    31    58    1
@<TRIPOS>SUBSTRUCTURE
     1 ZINC000428748914        1 TEMP              0 ****  ****    0 ROOT


##########                                Name:    ZINC000464139057
##########                DOCK_Rotatable_Bonds:                   9
##########                         Heavy_Atoms:                  30
##########                    Molecular_Weight:              413.56
##########                DOCK_Rotatable_Bonds:                   9
##########                       Formal_Charge:         2.38419e-07
##########                     HBond_Acceptors:                   6
##########                        HBond_Donors:                   2
##########                         Heavy_Atoms:                  30
##########                          Grid_Score:          -32.127876
##########                     Grid_vdw_energy:          -29.722088
##########                      Grid_es_energy:           -2.405787
##########           Internal_energy_repulsive:           13.900664

@<TRIPOS>MOLECULE
ZINC000464139057
 65 67 1 0 0
SMALL
USER_CHARGES


@<TRIPOS>ATOM
      1 C1        -12.2784   -1.3823   60.0583 C.3     1  ZINC000464139057   -0.1800
      2 C2        -13.3438   -0.8177   59.1166 C.3     1  ZINC000464139057    0.0700
      3 H3        -13.8874   -0.0179   59.6196 H       1  ZINC000464139057    0.1200
      4 C4        -12.6710   -0.2648   57.8549 C.3     1  ZINC000464139057    0.0800
      5 N5        -12.1037   -1.3928   57.0992 N.am    1  ZINC000464139057   -0.6100
      6 C6        -10.8235   -1.3722   56.6786 C.2     1  ZINC000464139057    0.5600
      7 O7        -10.3731   -2.3136   56.0557 O.2     1  ZINC000464139057   -0.5300
      8 C8         -9.9667   -0.2042   56.9751 C.ar    1  ZINC000464139057   -0.1200
      9 C9         -9.3069   -0.1122   58.2016 C.ar    1  ZINC000464139057   -0.0900
     10 C10        -8.5087    0.9801   58.4718 C.ar    1  ZINC000464139057   -0.1000
     11 C11        -8.3618    1.9831   57.5302 C.ar    1  ZINC000464139057   -0.0900
     12 C12        -7.4885    3.1736   57.8324 C.3     1  ZINC000464139057    0.1800
     13 N13        -6.1283    2.9155   57.3536 N.am    1  ZINC000464139057   -0.7400
     14 C14        -5.1204    3.7346   57.7137 C.2     1  ZINC000464139057    0.7000
     15 O15        -5.3398    4.6868   58.4371 O.2     1  ZINC000464139057   -0.5900
     16 N16        -3.8693    3.4981   57.2719 N.am    1  ZINC000464139057   -0.7500
     17 C17        -2.7740    4.3895   57.6619 C.3     1  ZINC000464139057    0.1400
     18 C18        -1.4530    3.8429   57.1169 C.3     1  ZINC000464139057   -0.0900
     19 C19        -0.6421    3.2672   58.2492 C.2     1  ZINC000464139057   -0.1200
     20 C20         0.6286    3.5079   58.3189 C.2     1  ZINC000464139057   -0.1500
     21 C21         1.4548    2.9358   59.4510 C.3     1  ZINC000464139057   -0.0900
     22 C22         1.0991    3.6800   60.7399 C.3     1  ZINC000464139057   -0.1100
     23 C23        -0.1142    3.0544   61.4050 C.3     1  ZINC000464139057   -0.1200
     24 C24        -1.3948    3.2084   60.6036 C.3     1  ZINC000464139057   -0.1100
     25 C25        -1.3184    2.4160   59.3025 C.3     1  ZINC000464139057   -0.0800
     26 C26        -9.0127    1.8979   56.3122 C.ar    1  ZINC000464139057   -0.1000
     27 C27        -9.8096    0.8084   56.0274 C.ar    1  ZINC000464139057   -0.0700
     28 C28       -12.9755   -2.5441   56.8165 C.3     1  ZINC000464139057    0.0700
     29 C29       -13.6335   -2.9859   58.1287 C.3     1  ZINC000464139057    0.0700
     30 H30       -12.8755   -3.3961   58.7960 H       1  ZINC000464139057    0.0700
     31 C31       -14.6892   -4.0542   57.8367 C.3     1  ZINC000464139057   -0.1500
     32 O32       -14.2548   -1.8563   58.7487 O.3     1  ZINC000464139057   -0.3700
     33 H33       -11.7352   -2.1820   59.5546 H       1  ZINC000464139057    0.0600
     34 H34       -11.5832   -0.5904   60.3369 H       1  ZINC000464139057    0.0700
     35 H35       -12.7576   -1.7769   60.9543 H       1  ZINC000464139057    0.0700
     36 H36       -13.4089    0.2535   57.2425 H       1  ZINC000464139057    0.0800
     37 H37       -11.8758    0.4259   58.1356 H       1  ZINC000464139057    0.1000
     38 H38        -9.4214   -0.8941   58.9377 H       1  ZINC000464139057    0.1300
     39 H39        -7.9976    1.0525   59.4204 H       1  ZINC000464139057    0.1300
     40 H40        -7.8891    4.0547   57.3310 H       1  ZINC000464139057    0.0800
     41 H41        -7.4684    3.3456   58.9085 H       1  ZINC000464139057    0.0800
     42 H42        -5.9529    2.1551   56.7774 H       1  ZINC000464139057    0.4000
     43 H43        -3.6940    2.7377   56.6957 H       1  ZINC000464139057    0.4000
     44 H44        -2.9518    5.3841   57.2530 H       1  ZINC000464139057    0.0700
     45 H45        -2.7222    4.4474   58.7491 H       1  ZINC000464139057    0.0700
     46 H46        -1.6575    3.0630   56.3833 H       1  ZINC000464139057    0.0700
     47 H47        -0.8938    4.6497   56.6431 H       1  ZINC000464139057    0.0800
     48 H48         1.1015    4.1198   57.5650 H       1  ZINC000464139057    0.1100
     49 H49         1.2314    1.8753   59.5672 H       1  ZINC000464139057    0.0700
     50 H50         2.5147    3.0672   59.2331 H       1  ZINC000464139057    0.0700
     51 H51         1.9460    3.6366   61.4248 H       1  ZINC000464139057    0.0600
     52 H52         0.8820    4.7219   60.5044 H       1  ZINC000464139057    0.0600
     53 H53         0.0786    1.9919   61.5532 H       1  ZINC000464139057    0.0600
     54 H54        -0.2554    3.5195   62.3806 H       1  ZINC000464139057    0.0600
     55 H55        -2.2347    2.8460   61.1963 H       1  ZINC000464139057    0.0600
     56 H56        -1.5485    4.2623   60.3717 H       1  ZINC000464139057    0.0600
     57 H57        -2.3244    2.1570   58.9722 H       1  ZINC000464139057    0.0700
     58 H58        -0.7374    1.5073   59.4610 H       1  ZINC000464139057    0.0700
     59 H59        -8.8936    2.6841   55.5814 H       1  ZINC000464139057    0.1300
     60 H60       -10.3170    0.7428   55.0762 H       1  ZINC000464139057    0.1300
     61 H61       -13.7441   -2.2553   56.0995 H       1  ZINC000464139057    0.0800
     62 H62       -12.3820   -3.3628   56.4096 H       1  ZINC000464139057    0.1000
     63 H63       -14.2154   -4.9128   57.3611 H       1  ZINC000464139057    0.0800
     64 H64       -15.1566   -4.3678   58.7700 H       1  ZINC000464139057    0.0700
     65 H65       -15.4478   -3.6428   57.1708 H       1  ZINC000464139057    0.0700
@<TRIPOS>BOND
     1     1     2    1
     2     1    33    1
     3     1    34    1
     4     1    35    1
     5     2     3    1
     6     2    32    1
     7     2     4    1
     8     4     5    1
     9     4    36    1
    10     4    37    1
    11     5     6   am
    12     5    28    1
    13     6     7    2
    14     6     8    1
    15     8    27   ar
    16     8     9   ar
    17     9    10   ar
    18     9    38    1
    19    10    11   ar
    20    10    39    1
    21    11    12    1
    22    11    26   ar
    23    12    13    1
    24    12    40    1
    25    12    41    1
    26    13    14   am
    27    13    42    1
    28    14    15    2
    29    14    16   am
    30    16    17    1
    31    16    43    1
    32    17    18    1
    33    17    44    1
    34    17    45    1
    35    18    19    1
    36    18    46    1
    37    18    47    1
    38    19    25    1
    39    19    20    2
    40    20    21    1
    41    20    48    1
    42    21    22    1
    43    21    49    1
    44    21    50    1
    45    22    23    1
    46    22    51    1
    47    22    52    1
    48    23    24    1
    49    23    53    1
    50    23    54    1
    51    24    25    1
    52    24    55    1
    53    24    56    1
    54    25    57    1
    55    25    58    1
    56    26    27   ar
    57    26    59    1
    58    27    60    1
    59    28    29    1
    60    28    61    1
    61    28    62    1
    62    29    30    1
    63    29    31    1
    64    29    32    1
    65    31    63    1
    66    31    64    1
    67    31    65    1
@<TRIPOS>SUBSTRUCTURE
     1 ZINC000464139057        1 TEMP              0 ****  ****    0 ROOT


##########                                Name:    ZINC000355549087
##########                DOCK_Rotatable_Bonds:                   9
##########                         Heavy_Atoms:                  23
##########                    Molecular_Weight:             336.415
##########                DOCK_Rotatable_Bonds:                   9
##########                       Formal_Charge:        -9.53674e-07
##########                     HBond_Acceptors:                   8
##########                        HBond_Donors:                   4
##########                         Heavy_Atoms:                  23
##########                          Grid_Score:          -32.124676
##########                     Grid_vdw_energy:          -30.191126
##########                      Grid_es_energy:           -1.933549
##########           Internal_energy_repulsive:           20.042677

@<TRIPOS>MOLECULE
ZINC000355549087
 43 44 1 0 0
SMALL
USER_CHARGES


@<TRIPOS>ATOM
      1 C1        -10.5745    3.3443   64.9664 C.3     1  <0>        -0.1500
      2 C2        -10.4091    1.9718   64.3108 C.3     1  <0>        -0.1200
      3 C3         -9.0166    1.8701   63.6851 C.3     1  <0>        -0.1000
      4 H4         -8.2802    2.2965   64.3663 H       1  <0>         0.0800
      5 C5         -8.9941    2.6396   62.3629 C.3     1  <0>        -0.1500
      6 C6         -8.6803    0.4002   63.4255 C.3     1  <0>         0.0900
      7 H7         -7.6072    0.2958   63.2656 H       1  <0>         0.1000
      8 O8         -9.0725   -0.3845   64.5535 O.3     1  <0>        -0.3500
      9 C9         -8.1821   -0.2873   65.6669 C.3     1  <0>         0.0200
     10 C10        -9.4192   -0.0754   62.2012 C.2     1  <0>         0.5100
     11 O11       -10.6316   -0.0548   62.1785 O.2     1  <0>        -0.4800
     12 N12        -8.7327   -0.5238   61.1315 N.am    1  <0>        -0.6200
     13 C13        -9.4140   -0.9608   60.0020 C.2     1  <0>         0.2400
     14 N14        -9.2031   -0.5306   58.7992 N.2     1  <0>        -0.5000
     15 C15        -9.9454   -1.0577   57.8343 C.2     1  <0>         0.1700
     16 C16        -9.8150   -0.6622   56.4086 C.2     1  <0>        -0.1100
     17 C17        -9.0638    0.3691   55.9221 C.2     1  <0>         0.0600
     18 N18        -9.2052    0.4061   54.5745 N.pl3   1  <0>        -0.5400
     19 C19       -10.0528   -0.6075   54.1888 C.2     1  <0>        -0.0600
     20 C20       -10.4650   -0.9107   52.8138 C.2     1  <0>         0.5900
     21 N21       -11.7289   -0.6598   52.4184 N.am    1  <0>        -0.8600
     22 O22        -9.6659   -1.3888   52.0304 O.2     1  <0>        -0.5300
     23 C23       -10.4384   -1.2856   55.3114 C.2     1  <0>        -0.0600
     24 C24       -10.8263   -1.9815   58.2589 C.2     1  <0>        -0.3200
     25 S25       -10.6440   -2.1476   60.0031 S.3     1  <0>         0.2500
     26 H26       -11.5666    3.4168   65.4122 H       1  <0>         0.0600
     27 H27        -9.8181    3.4706   65.7408 H       1  <0>         0.0600
     28 H28       -10.4570    4.1234   64.2131 H       1  <0>         0.0600
     29 H29       -10.5267    1.1928   65.0641 H       1  <0>         0.0600
     30 H30       -11.1656    1.8455   63.5364 H       1  <0>         0.0700
     31 H31        -9.7306    2.2132   61.6818 H       1  <0>         0.0700
     32 H32        -9.2338    3.6868   62.5478 H       1  <0>         0.0600
     33 H33        -8.0021    2.5672   61.9172 H       1  <0>         0.0500
     34 H34        -8.4939   -0.9860   66.4434 H       1  <0>         0.0900
     35 H35        -7.1696   -0.5303   65.3447 H       1  <0>         0.0500
     36 H36        -8.2039    0.7283   66.0619 H       1  <0>         0.0500
     37 H37        -7.7630   -0.5414   61.1501 H       1  <0>         0.4200
     38 H38        -8.4589    1.0420   56.5119 H       1  <0>         0.1800
     39 H39        -8.7790    1.0427   53.9796 H       1  <0>         0.4200
     40 H40       -12.0010   -0.8591   51.5089 H       1  <0>         0.4000
     41 H41       -12.3661   -0.2798   53.0431 H       1  <0>         0.4100
     42 H42       -11.1023   -2.1366   55.3498 H       1  <0>         0.1500
     43 H43       -11.5210   -2.5282   57.6386 H       1  <0>         0.1800
@<TRIPOS>BOND
     1     1     2    1
     2     1    26    1
     3     1    27    1
     4     1    28    1
     5     2     3    1
     6     2    29    1
     7     2    30    1
     8     3     4    1
     9     3     5    1
    10     3     6    1
    11     5    31    1
    12     5    32    1
    13     5    33    1
    14     6     7    1
    15     6     8    1
    16     6    10    1
    17     8     9    1
    18     9    34    1
    19     9    35    1
    20     9    36    1
    21    10    11    2
    22    10    12   am
    23    12    13    1
    24    12    37    1
    25    13    25    1
    26    13    14    2
    27    14    15    1
    28    15    16    1
    29    15    24    2
    30    16    23    1
    31    16    17    2
    32    17    18    1
    33    17    38    1
    34    18    19    1
    35    18    39    1
    36    19    20    1
    37    19    23    2
    38    20    21   am
    39    20    22    2
    40    21    40    1
    41    21    41    1
    42    23    42    1
    43    24    25    1
    44    24    43    1
@<TRIPOS>SUBSTRUCTURE
     1 <0>         1 TEMP              0 ****  ****    0 ROOT


##########                                Name:    ZINC000533037883
##########                DOCK_Rotatable_Bonds:                   7
##########                         Heavy_Atoms:                  27
##########                    Molecular_Weight:             368.479
##########                DOCK_Rotatable_Bonds:                   7
##########                       Formal_Charge:          0.00999947
##########                     HBond_Acceptors:                   6
##########                        HBond_Donors:                   1
##########                         Heavy_Atoms:                  27
##########                          Grid_Score:          -32.087139
##########                     Grid_vdw_energy:          -32.049580
##########                      Grid_es_energy:           -0.037561
##########           Internal_energy_repulsive:           17.288048

@<TRIPOS>MOLECULE
ZINC000533037883
 55 58 1 0 0
SMALL
USER_CHARGES


@<TRIPOS>ATOM
      1 O1          2.7004    3.1439   54.8674 O.2     1  ZINC000533037883   -0.5900
      2 C2          2.3243    2.9741   53.7236 C.2     1  ZINC000533037883    0.7100
      3 N3          1.3049    3.7069   53.2336 N.am    1  ZINC000533037883   -0.7500
      4 C4          0.6458    4.7039   54.0809 C.3     1  ZINC000533037883    0.1400
      5 C5         -0.6501    4.1176   54.6444 C.3     1  ZINC000533037883   -0.0500
      6 C6         -1.7086    4.1155   53.5716 C.2     1  ZINC000533037883   -0.2300
      7 C7         -3.0170    3.8173   53.7449 C.2     1  ZINC000533037883    0.0600
      8 N8         -3.6277    3.9317   52.5438 N.pl3   1  ZINC000533037883   -0.3200
      9 C9         -4.9873    3.7093   52.2850 C.ar    1  ZINC000533037883    0.1600
     10 C10        -5.4795    3.8373   50.9930 C.ar    1  ZINC000533037883   -0.1400
     11 C11        -6.8196    3.6176   50.7412 C.ar    1  ZINC000533037883   -0.0900
     12 C12        -7.6710    3.2710   51.7742 C.ar    1  ZINC000533037883   -0.1300
     13 C13        -7.1838    3.1428   53.0619 C.ar    1  ZINC000533037883   -0.0900
     14 C14        -5.8434    3.3552   53.3190 C.ar    1  ZINC000533037883   -0.1200
     15 N15        -2.6610    4.3124   51.6041 N.2     1  ZINC000533037883   -0.2900
     16 C16        -1.5128    4.4273   52.2217 C.2     1  ZINC000533037883    0.0700
     17 N17         2.9307    2.0569   52.9441 N.am    1  ZINC000533037883   -0.6300
     18 C18         4.0433    1.2504   53.4642 C.3     1  ZINC000533037883    0.1100
     19 C19         3.7231   -0.2314   53.2440 C.3     1  ZINC000533037883   -0.1400
     20 C20         3.4134   -0.4679   51.7640 C.3     1  ZINC000533037883   -0.1100
     21 C21         2.1890    0.3561   51.3593 C.3     1  ZINC000533037883   -0.0900
     22 H22         1.3383    0.0720   51.9787 H       1  ZINC000533037883    0.0800
     23 C23         1.8600    0.0932   49.8884 C.3     1  ZINC000533037883   -0.1200
     24 H24         2.7369    0.2552   49.2616 H       1  ZINC000533037883    0.0900
     25 C25         1.3000   -1.3424   49.6953 C.3     1  ZINC000533037883   -0.1500
     26 C26         0.4131   -1.1458   48.4401 C.3     1  ZINC000533037883    0.0500
     27 O27        -0.1569    0.1646   48.5850 O.3     1  ZINC000533037883   -0.3900
     28 C28         0.6815    0.9752   49.4229 C.3     1  ZINC000533037883    0.0500
     29 C29         2.4878    1.8403   51.5600 C.3     1  ZINC000533037883    0.1300
     30 H30         1.0075    3.5741   52.3199 H       1  ZINC000533037883    0.4000
     31 H31         1.3081    4.9776   54.9022 H       1  ZINC000533037883    0.0700
     32 H32         0.4165    5.5897   53.4885 H       1  ZINC000533037883    0.0700
     33 H33        -0.4711    3.0961   54.9801 H       1  ZINC000533037883    0.0800
     34 H34        -0.9870    4.7228   55.4860 H       1  ZINC000533037883    0.0800
     35 H35        -3.4888    3.5376   54.6753 H       1  ZINC000533037883    0.1800
     36 H36        -4.8152    4.1086   50.1860 H       1  ZINC000533037883    0.1300
     37 H37        -7.2030    3.7170   49.7363 H       1  ZINC000533037883    0.1300
     38 H38        -8.7186    3.1004   51.5748 H       1  ZINC000533037883    0.1300
     39 H39        -7.8511    2.8720   53.8667 H       1  ZINC000533037883    0.1300
     40 H40        -5.4635    3.2546   54.3249 H       1  ZINC000533037883    0.1400
     41 H41        -0.5747    4.7085   51.7666 H       1  ZINC000533037883    0.1900
     42 H42         4.9604    1.5086   52.9348 H       1  ZINC000533037883    0.0700
     43 H43         4.1673    1.4430   54.5298 H       1  ZINC000533037883    0.0800
     44 H44         4.5810   -0.8364   53.5373 H       1  ZINC000533037883    0.0800
     45 H45         2.8580   -0.5100   53.8457 H       1  ZINC000533037883    0.0700
     46 H46         4.2698   -0.1658   51.1610 H       1  ZINC000533037883    0.0700
     47 H47         3.2094   -1.5260   51.6002 H       1  ZINC000533037883    0.0700
     48 H48         2.1024   -2.0543   49.5018 H       1  ZINC000533037883    0.0800
     49 H49         0.7031   -1.6500   50.5539 H       1  ZINC000533037883    0.0800
     50 H50         1.0202   -1.1964   47.5362 H       1  ZINC000533037883    0.0600
     51 H51        -0.3738   -1.8995   48.4110 H       1  ZINC000533037883    0.0900
     52 H52         0.1163    1.3197   50.2889 H       1  ZINC000533037883    0.0700
     53 H53         1.0525    1.8303   48.8580 H       1  ZINC000533037883    0.0700
     54 H54         1.5872    2.4236   51.3677 H       1  ZINC000533037883    0.1000
     55 H55         3.2787    2.1496   50.8768 H       1  ZINC000533037883    0.0700
@<TRIPOS>BOND
     1     1     2    2
     2     2     3   am
     3     2    17   am
     4     3     4    1
     5     3    30    1
     6     4     5    1
     7     4    31    1
     8     4    32    1
     9     5     6    1
    10     5    33    1
    11     5    34    1
    12     6    16    1
    13     6     7    2
    14     7     8    1
    15     7    35    1
    16     8     9    1
    17     8    15    1
    18     9    14   ar
    19     9    10   ar
    20    10    11   ar
    21    10    36    1
    22    11    12   ar
    23    11    37    1
    24    12    13   ar
    25    12    38    1
    26    13    14   ar
    27    13    39    1
    28    14    40    1
    29    15    16    2
    30    16    41    1
    31    17    29    1
    32    17    18    1
    33    18    19    1
    34    18    42    1
    35    18    43    1
    36    19    20    1
    37    19    44    1
    38    19    45    1
    39    20    21    1
    40    20    46    1
    41    20    47    1
    42    21    22    1
    43    21    23    1
    44    21    29    1
    45    23    24    1
    46    23    28    1
    47    23    25    1
    48    25    26    1
    49    25    48    1
    50    25    49    1
    51    26    27    1
    52    26    50    1
    53    26    51    1
    54    27    28    1
    55    28    52    1
    56    28    53    1
    57    29    54    1
    58    29    55    1
@<TRIPOS>SUBSTRUCTURE
     1 ZINC000533037883        1 TEMP              0 ****  ****    0 ROOT


##########                                Name:    ZINC001347442583
##########                DOCK_Rotatable_Bonds:                   9
##########                         Heavy_Atoms:                  27
##########                    Molecular_Weight:             370.492
##########                DOCK_Rotatable_Bonds:                   9
##########                       Formal_Charge:          -0.0400009
##########                     HBond_Acceptors:                   5
##########                        HBond_Donors:                   1
##########                         Heavy_Atoms:                  27
##########                          Grid_Score:          -32.072849
##########                     Grid_vdw_energy:          -32.388245
##########                      Grid_es_energy:            0.315394
##########           Internal_energy_repulsive:           13.441805

@<TRIPOS>MOLECULE
ZINC001347442583
 57 60 1 0 0
SMALL
USER_CHARGES


@<TRIPOS>ATOM
      1 O1        -10.5606   -3.5274   58.5539 O.2     1  ZINC001347442583   -0.5400
      2 C2        -11.3960   -2.7495   58.9638 C.2     1  ZINC001347442583    0.5400
      3 C3        -11.2061   -2.0734   60.2972 C.3     1  ZINC001347442583   -0.1400
      4 C4         -9.7973   -1.4814   60.3728 C.3     1  ZINC001347442583   -0.1000
      5 C5         -9.6464   -0.3872   59.3142 C.3     1  ZINC001347442583   -0.1100
      6 C6         -8.3205    0.3468   59.5248 C.3     1  ZINC001347442583   -0.0800
      7 C7         -8.2966    1.5936   58.6787 C.ar    1  ZINC001347442583   -0.0800
      8 C8         -8.7231    1.5456   57.3647 C.ar    1  ZINC001347442583   -0.1200
      9 C9         -8.7012    2.6894   56.5887 C.ar    1  ZINC001347442583   -0.1200
     10 C10        -8.2533    3.8813   57.1268 C.ar    1  ZINC001347442583   -0.1300
     11 C11        -7.8278    3.9296   58.4411 C.ar    1  ZINC001347442583   -0.1200
     12 C12        -7.8538    2.7867   59.2185 C.ar    1  ZINC001347442583   -0.1200
     13 N13       -12.4915   -2.4855   58.2244 N.am    1  ZINC001347442583   -0.6300
     14 C14       -13.6582   -1.5760   58.4868 C.3     1  ZINC001347442583    0.1200
     15 H15       -13.6349   -1.0336   59.4319 H       1  ZINC001347442583    0.1200
     16 C16       -14.8517   -2.5617   58.3065 C.3     1  ZINC001347442583   -0.1300
     17 C17       -14.3502   -3.5386   57.2146 C.3     1  ZINC001347442583   -0.1300
     18 C18       -12.9186   -3.0052   56.8810 C.3     1  ZINC001347442583    0.1200
     19 H19       -12.2457   -3.7243   56.4142 H       1  ZINC001347442583    0.1200
     20 C20       -13.1533   -1.6875   56.0827 C.3     1  ZINC001347442583    0.1300
     21 H21       -13.9076   -1.8358   55.3099 H       1  ZINC001347442583    0.1100
     22 N22       -11.8996   -1.2109   55.4932 N.am    1  ZINC001347442583   -0.7200
     23 C23       -11.8812   -0.7575   54.2242 C.2     1  ZINC001347442583    0.5300
     24 O24       -12.9027   -0.7426   53.5707 O.2     1  ZINC001347442583   -0.5300
     25 C25       -10.5911   -0.2689   53.6173 C.3     1  ZINC001347442583   -0.1500
     26 H26       -10.4556    0.7963   53.8041 H       1  ZINC001347442583    0.1100
     27 C27        -9.3835   -1.0827   54.1570 C.3     1  ZINC001347442583   -0.1400
     28 C28        -8.3940   -0.9623   52.9707 C.3     1  ZINC001347442583    0.0500
     29 O29        -9.2141   -1.0067   51.7923 O.3     1  ZINC001347442583   -0.3800
     30 C30       -10.5465   -0.5715   52.1041 C.3     1  ZINC001347442583    0.0700
     31 C31       -13.6423   -0.6920   57.2035 C.3     1  ZINC001347442583   -0.1400
     32 H32       -11.9415   -1.2765   60.4086 H       1  ZINC001347442583    0.0900
     33 H33       -11.3370   -2.8029   61.0965 H       1  ZINC001347442583    0.0900
     34 H34        -9.6353   -1.0544   61.3625 H       1  ZINC001347442583    0.0700
     35 H35        -9.0632   -2.2664   60.1913 H       1  ZINC001347442583    0.0700
     36 H36        -9.6587   -0.8376   58.3217 H       1  ZINC001347442583    0.0600
     37 H37       -10.4711    0.3201   59.4026 H       1  ZINC001347442583    0.0600
     38 H38        -8.2185    0.6185   60.5754 H       1  ZINC001347442583    0.0700
     39 H39        -7.4951   -0.3040   59.2359 H       1  ZINC001347442583    0.0700
     40 H40        -9.0729    0.6144   56.9442 H       1  ZINC001347442583    0.1200
     41 H41        -9.0335    2.6516   55.5618 H       1  ZINC001347442583    0.1200
     42 H42        -8.2356    4.7748   56.5203 H       1  ZINC001347442583    0.1200
     43 H43        -7.4776    4.8607   58.8616 H       1  ZINC001347442583    0.1200
     44 H44        -7.5213    2.8244   60.2454 H       1  ZINC001347442583    0.1200
     45 H45       -15.0532   -3.0949   59.2356 H       1  ZINC001347442583    0.0700
     46 H46       -15.7408   -2.0303   57.9670 H       1  ZINC001347442583    0.0800
     47 H47       -14.3029   -4.5563   57.6023 H       1  ZINC001347442583    0.0800
     48 H48       -14.9904   -3.4916   56.3338 H       1  ZINC001347442583    0.0800
     49 H49       -11.0829   -1.2217   56.0164 H       1  ZINC001347442583    0.4000
     50 H50        -8.9736   -0.6266   55.0582 H       1  ZINC001347442583    0.0900
     51 H51        -9.6584   -2.1223   54.3352 H       1  ZINC001347442583    0.0900
     52 H52        -7.8557   -0.0158   53.0216 H       1  ZINC001347442583    0.0700
     53 H53        -7.6936   -1.7974   52.9759 H       1  ZINC001347442583    0.0900
     54 H54       -11.2587   -1.3618   51.8666 H       1  ZINC001347442583    0.0700
     55 H55       -10.7850    0.3265   51.5343 H       1  ZINC001347442583    0.0800
     56 H56       -14.6520   -0.3405   56.9909 H       1  ZINC001347442583    0.0900
     57 H57       -12.9541    0.1479   57.2979 H       1  ZINC001347442583    0.0800
@<TRIPOS>BOND
     1     1     2    2
     2     2     3    1
     3     2    13   am
     4     3     4    1
     5     3    32    1
     6     3    33    1
     7     4     5    1
     8     4    34    1
     9     4    35    1
    10     5     6    1
    11     5    36    1
    12     5    37    1
    13     6     7    1
    14     6    38    1
    15     6    39    1
    16     7    12   ar
    17     7     8   ar
    18     8     9   ar
    19     8    40    1
    20     9    10   ar
    21     9    41    1
    22    10    11   ar
    23    10    42    1
    24    11    12   ar
    25    11    43    1
    26    12    44    1
    27    13    18    1
    28    13    14    1
    29    14    15    1
    30    14    31    1
    31    14    16    1
    32    16    17    1
    33    16    45    1
    34    16    46    1
    35    17    18    1
    36    17    47    1
    37    17    48    1
    38    18    19    1
    39    18    20    1
    40    20    21    1
    41    20    22    1
    42    20    31    1
    43    22    23   am
    44    22    49    1
    45    23    24    2
    46    23    25    1
    47    25    26    1
    48    25    30    1
    49    25    27    1
    50    27    28    1
    51    27    50    1
    52    27    51    1
    53    28    29    1
    54    28    52    1
    55    28    53    1
    56    29    30    1
    57    30    54    1
    58    30    55    1
    59    31    56    1
    60    31    57    1
@<TRIPOS>SUBSTRUCTURE
     1 ZINC001347442583        1 TEMP              0 ****  ****    0 ROOT


##########                                Name:     oleObject17.pdb
##########                DOCK_Rotatable_Bonds:                   8
##########                         Heavy_Atoms:                  29
##########                    Molecular_Weight:             435.393
##########                DOCK_Rotatable_Bonds:                   8
##########                       Formal_Charge:         0.000400059
##########                     HBond_Acceptors:                   6
##########                        HBond_Donors:                   0
##########                         Heavy_Atoms:                  29
##########                          Grid_Score:          -32.072388
##########                     Grid_vdw_energy:          -32.130981
##########                      Grid_es_energy:            0.058593
##########           Internal_energy_repulsive:           16.565273

@<TRIPOS>MOLECULE
oleObject17.pdb
 57 59 1 0 0
SMALL
NO_CHARGES


@<TRIPOS>ATOM
      1 C          -7.1238    4.2488   51.5446 C.3     1  UNL         0.0391
      2 C          -7.5903    2.9220   52.1475 C.ar    1  UNL        -0.0277
      3 C          -8.9213    2.4491   52.0255 C.ar    1  UNL        -0.0463
      4 C          -9.2824    1.2322   52.6368 C.ar    1  UNL        -0.0590
      5 C          -8.3409    0.4848   53.3591 C.ar    1  UNL        -0.0620
      6 C          -7.0208    0.9421   53.4656 C.ar    1  UNL        -0.0619
      7 C          -6.6495    2.1505   52.8577 C.ar    1  UNL        -0.0572
      8 C          -9.9856    3.2120   51.2444 C.3     1  UNL        -0.0394
      9 N          -6.1601    4.9621   52.4100 N.am    1  UNL        -0.3003
     10 C          -4.7894    4.9059   52.1589 C.2     1  UNL         0.2175
     11 O          -4.3864    4.5397   51.0679 O.2     1  UNL        -0.2772
     12 C          -3.8711    5.6925   53.1313 C.3     1  UNL         0.0384
     13 C          -2.5668    6.1858   52.4553 C.3     1  UNL        -0.0289
     14 C          -1.6250    5.0116   52.1249 C.3     1  UNL        -0.0010
     15 N          -1.2884    4.2214   53.3294 N.4     1  UNL        -0.3010
     16 C          -2.4618    3.7480   54.1007 C.3     1  UNL        -0.0010
     17 C          -3.4856    4.8749   54.3944 C.3     1  UNL        -0.0289
     18 C          -0.2765    3.1700   53.0773 C.3     1  UNL         0.0222
     19 C           1.0613    3.7165   52.5271 C.3     1  UNL         0.0661
     20 O           1.9700    2.6140   52.3676 O.3     1  UNL        -0.3432
     21 C           1.7521    1.5874   51.4686 C.ar    1  UNL         0.0937
     22 C           0.9749    1.7675   50.3040 C.ar    1  UNL        -0.0288
     23 C           0.7832    0.7014   49.4099 C.ar    1  UNL        -0.0408
     24 C           1.3625   -0.5496   49.6735 C.ar    1  UNL         0.0422
     25 C           2.1334   -0.7380   50.8313 C.ar    1  UNL        -0.0221
     26 C           2.3275    0.3268   51.7270 C.ar    1  UNL         0.0723
     27 CL          3.3008    0.0596   53.1613 Cl      1  UNL        -0.0814
     28 CL          1.1226   -1.8763   48.5568 Cl      1  UNL        -0.0843
     29 C          -6.7351    5.7151   53.5396 C.3     1  UNL         0.0031
     30 H          -7.9718    4.9156   51.3528 H       1  UNL         0.0520
     31 H          -6.6624    4.0411   50.5710 H       1  UNL         0.0520
     32 H         -10.2998    0.8607   52.5539 H       1  UNL         0.0626
     33 H          -8.6329   -0.4501   53.8291 H       1  UNL         0.0623
     34 H          -6.2873    0.3631   54.0191 H       1  UNL         0.0623
     35 H          -5.6246    2.4973   52.9507 H       1  UNL         0.0626
     36 H          -9.6526    3.4202   50.2202 H       1  UNL         0.0280
     37 H         -10.2253    4.1664   51.7268 H       1  UNL         0.0280
     38 H         -10.9197    2.6419   51.1691 H       1  UNL         0.0280
     39 H          -4.4353    6.5692   53.4705 H       1  UNL         0.0402
     40 H          -2.0479    6.8764   53.1326 H       1  UNL         0.0288
     41 H          -2.7824    6.7536   51.5442 H       1  UNL         0.0288
     42 H          -0.7083    5.4083   51.6699 H       1  UNL         0.0431
     43 H          -2.1169    4.3727   51.3827 H       1  UNL         0.0431
     44 H          -2.1269    3.3204   55.0544 H       1  UNL         0.0431
     45 H          -2.9676    2.9469   53.5503 H       1  UNL         0.0431
     46 H          -3.0461    5.5566   55.1341 H       1  UNL         0.0288
     47 H          -4.3844    4.4498   54.8592 H       1  UNL         0.0288
     48 H          -0.6780    2.4383   52.3645 H       1  UNL         0.0455
     49 H          -0.0742    2.6330   54.0129 H       1  UNL         0.0455
     50 H           1.4870    4.4409   53.2308 H       1  UNL         0.0586
     51 H           0.8964    4.2125   51.5630 H       1  UNL         0.0586
     52 H           0.5145    2.7247   50.0817 H       1  UNL         0.0651
     53 H           0.1849    0.8462   48.5147 H       1  UNL         0.0639
     54 H           2.5808   -1.7069   51.0344 H       1  UNL         0.0655
     55 H          -7.6212    5.1979   53.9288 H       1  UNL         0.0433
     56 H          -7.0259    6.7209   53.2131 H       1  UNL         0.0433
     57 H          -6.0036    5.7957   54.3531 H       1  UNL         0.0433
@<TRIPOS>BOND
     1     1     2    1
     2     1     9    1
     3     1    30    1
     4     1    31    1
     5     2     3   ar
     6     2     7   ar
     7     3     4   ar
     8     3     8    1
     9     4     5   ar
    10     4    32    1
    11     5     6   ar
    12     5    33    1
    13     6     7   ar
    14     6    34    1
    15     7    35    1
    16     8    36    1
    17     8    37    1
    18     8    38    1
    19     9    10   am
    20     9    29    1
    21    10    11    2
    22    10    12    1
    23    12    13    1
    24    12    17    1
    25    12    39    1
    26    13    14    1
    27    13    40    1
    28    13    41    1
    29    14    15    1
    30    14    42    1
    31    14    43    1
    32    15    16    1
    33    15    18    1
    34    16    17    1
    35    16    44    1
    36    16    45    1
    37    17    46    1
    38    17    47    1
    39    18    19    1
    40    18    48    1
    41    18    49    1
    42    19    20    1
    43    19    50    1
    44    19    51    1
    45    20    21    1
    46    21    22   ar
    47    21    26   ar
    48    22    23   ar
    49    22    52    1
    50    23    24   ar
    51    23    53    1
    52    24    25   ar
    53    24    28    1
    54    25    26   ar
    55    25    54    1
    56    26    27    1
    57    29    55    1
    58    29    56    1
    59    29    57    1
@<TRIPOS>SUBSTRUCTURE
     1 UNL         1 TEMP              0 ****  ****    0 ROOT


##########                                Name:    ZINC000744839011
##########                DOCK_Rotatable_Bonds:                  10
##########                         Heavy_Atoms:                  24
##########                    Molecular_Weight:              378.83
##########                DOCK_Rotatable_Bonds:                  10
##########                       Formal_Charge:           0.0300002
##########                     HBond_Acceptors:                   9
##########                        HBond_Donors:                   0
##########                         Heavy_Atoms:                  24
##########                          Grid_Score:          -32.027363
##########                     Grid_vdw_energy:          -29.317881
##########                      Grid_es_energy:           -2.709481
##########           Internal_energy_repulsive:           12.756927

@<TRIPOS>MOLECULE
ZINC000744839011
 43 43 1 0 0
SMALL
USER_CHARGES


@<TRIPOS>ATOM
      1 C1         -8.7799    0.4470   52.5462 C.3     1  ZINC000744839011    0.0400
      2 O2         -9.5079    0.5693   53.7966 O.3     1  ZINC000744839011   -0.3600
      3 C3         -9.7963   -0.5728   54.4508 C.2     1  ZINC000744839011    0.5100
      4 O4        -10.0345   -1.5873   53.8260 O.2     1  ZINC000744839011   -0.5000
      5 C5         -9.8228   -0.5914   55.9251 C.ar    1  ZINC000744839011   -0.1600
      6 C6         -9.4220    0.5359   56.6475 C.ar    1  ZINC000744839011   -0.0100
      7 C7         -9.4486    0.5151   58.0243 C.ar    1  ZINC000744839011   -0.2100
      8 C8         -9.8732   -0.6247   58.6961 C.ar    1  ZINC000744839011    0.1800
      9 O9         -9.8977   -0.6409   60.0530 O.3     1  ZINC000744839011   -0.2900
     10 C10        -8.6436   -0.5132   60.7260 C.3     1  ZINC000744839011    0.0500
     11 C11        -8.8068    0.4061   61.9382 C.3     1  ZINC000744839011    0.0600
     12 O12        -8.0530   -0.1301   63.0573 O.3     1  ZINC000744839011   -0.3400
     13 C13        -8.4593    0.2178   64.2884 C.2     1  ZINC000744839011    0.5000
     14 O14        -8.4071   -0.5839   65.1908 O.2     1  ZINC000744839011   -0.4900
     15 C15        -8.9804    1.6083   64.5450 C.3     1  ZINC000744839011   -0.6400
     16 S16        -9.6542    1.7008   66.2266 S.o2    1  ZINC000744839011    2.4400
     17 O17       -10.7136    0.7609   66.3423 O.2     1  ZINC000744839011   -0.9100
     18 O18        -8.5755    1.6475   67.1501 O.2     1  ZINC000744839011   -0.9100
     19 C19       -10.3585    3.3722   66.2568 C.3     1  ZINC000744839011   -0.5700
     20 C20        -9.2523    4.3966   65.9961 C.3     1  ZINC000744839011   -0.1500
     21 C21       -11.4314    3.4932   65.1727 C.3     1  ZINC000744839011   -0.1500
     22 C22       -10.2736   -1.7493   57.9814 C.ar    1  ZINC000744839011   -0.0800
     23 Cl23      -10.8037   -3.1702   58.8264 Cl      1  ZINC000744839011   -0.0400
     24 C24       -10.2547   -1.7348   56.6041 C.ar    1  ZINC000744839011   -0.0100
     25 H25        -7.8200   -0.0354   52.7303 H       1  ZINC000744839011    0.0700
     26 H26        -9.3599   -0.1536   51.8453 H       1  ZINC000744839011    0.0700
     27 H27        -8.6135    1.4381   52.1242 H       1  ZINC000744839011    0.1100
     28 H28        -9.0913    1.4224   56.1265 H       1  ZINC000744839011    0.1500
     29 H29        -9.1385    1.3859   58.5828 H       1  ZINC000744839011    0.1500
     30 H30        -8.3076   -1.4957   61.0577 H       1  ZINC000744839011    0.0900
     31 H31        -7.9070   -0.0883   60.0443 H       1  ZINC000744839011    0.1000
     32 H32        -8.4345    1.4007   61.6925 H       1  ZINC000744839011    0.1100
     33 H33        -9.8612    0.4690   62.2072 H       1  ZINC000744839011    0.0900
     34 H34        -8.1672    2.3264   64.4394 H       1  ZINC000744839011    0.1700
     35 H35        -9.7657    1.8405   63.8256 H       1  ZINC000744839011    0.1700
     36 H36       -10.8054    3.5606   67.2330 H       1  ZINC000744839011    0.1400
     37 H37        -9.6755    5.4009   66.0142 H       1  ZINC000744839011    0.0900
     38 H38        -8.4879    4.3104   66.7683 H       1  ZINC000744839011    0.0700
     39 H39        -8.8054    4.2082   65.0198 H       1  ZINC000744839011    0.0800
     40 H40       -12.2194    2.7635   65.3585 H       1  ZINC000744839011    0.0800
     41 H41       -11.8546    4.4975   65.1908 H       1  ZINC000744839011    0.0900
     42 H42       -10.9845    3.3048   64.1966 H       1  ZINC000744839011    0.0800
     43 H43       -10.5655   -2.6080   56.0497 H       1  ZINC000744839011    0.1600
@<TRIPOS>BOND
     1     1     2    1
     2     1    25    1
     3     1    26    1
     4     1    27    1
     5     2     3    1
     6     3     4    2
     7     3     5    1
     8     5    24   ar
     9     5     6   ar
    10     6     7   ar
    11     6    28    1
    12     7     8   ar
    13     7    29    1
    14     8     9    1
    15     8    22   ar
    16     9    10    1
    17    10    11    1
    18    10    30    1
    19    10    31    1
    20    11    12    1
    21    11    32    1
    22    11    33    1
    23    12    13    1
    24    13    14    2
    25    13    15    1
    26    15    16    1
    27    15    34    1
    28    15    35    1
    29    16    17    2
    30    16    18    2
    31    16    19    1
    32    19    20    1
    33    19    21    1
    34    19    36    1
    35    20    37    1
    36    20    38    1
    37    20    39    1
    38    21    40    1
    39    21    41    1
    40    21    42    1
    41    22    23    1
    42    22    24   ar
    43    24    43    1
@<TRIPOS>SUBSTRUCTURE
     1 ZINC000744839011        1 TEMP              0 ****  ****    0 ROOT


##########                                Name:    ZINC000572257265
##########                DOCK_Rotatable_Bonds:                  11
##########                         Heavy_Atoms:                  24
##########                    Molecular_Weight:             393.509
##########                DOCK_Rotatable_Bonds:                  11
##########                       Formal_Charge:          -0.0100002
##########                     HBond_Acceptors:                  11
##########                        HBond_Donors:                   3
##########                         Heavy_Atoms:                  24
##########                          Grid_Score:          -31.995077
##########                     Grid_vdw_energy:          -28.597504
##########                      Grid_es_energy:           -3.397573
##########           Internal_energy_repulsive:           12.733403

@<TRIPOS>MOLECULE
ZINC000572257265
 43 43 1 0 0
SMALL
USER_CHARGES


@<TRIPOS>ATOM
      1 C1         -8.2295    4.6792   60.6698 C.3     1  ZINC000572257265   -0.1300
      2 S2         -7.2151    4.7145   59.1663 S.3     1  ZINC000572257265   -0.2200
      3 C3         -8.3340    4.0484   57.9034 C.3     1  ZINC000572257265   -0.1300
      4 C4         -8.0956    2.5446   57.7529 C.3     1  ZINC000572257265    0.1500
      5 C5         -9.0001    1.9928   56.6490 C.3     1  ZINC000572257265   -0.1500
      6 O6         -6.7283    2.3112   57.4094 O.3     1  ZINC000572257265   -0.5400
      7 C7         -8.4167    1.8425   59.0739 C.3     1  ZINC000572257265    0.0900
      8 N8         -8.8543    0.4708   58.8041 N.am    1  ZINC000572257265   -1.1100
      9 S9        -10.1349   -0.1687   59.6368 S.o2    1  ZINC000572257265    2.6900
     10 O10       -11.2137    0.7420   59.4753 O.2     1  ZINC000572257265   -0.9400
     11 O11       -10.2116   -1.5382   59.2651 O.2     1  ZINC000572257265   -0.9500
     12 C12        -9.7115   -0.1403   61.3469 C.ar    1  ZINC000572257265   -0.6300
     13 C13        -8.4201   -0.4326   61.7442 C.ar    1  ZINC000572257265   -0.0400
     14 C14        -8.0878   -0.4104   63.0858 C.ar    1  ZINC000572257265   -0.0400
     15 C15        -9.0470   -0.0954   64.0302 C.ar    1  ZINC000572257265   -0.6300
     16 S16        -8.6236   -0.0677   65.7404 S.o2    1  ZINC000572257265    2.7000
     17 O17        -9.3737   -1.1057   66.3563 O.2     1  ZINC000572257265   -0.9400
     18 O18        -7.2060    0.0083   65.8016 O.2     1  ZINC000572257265   -0.9400
     19 N19        -9.1957    1.3557   66.3639 N.am    1  ZINC000572257265   -1.1200
     20 C20        -8.7235    2.6337   65.8254 C.3     1  ZINC000572257265    0.2200
     21 C21        -9.7146    3.6835   66.1124 C.1     1  ZINC000572257265    0.1900
     22 N22       -10.4796    4.4936   66.3340 N.1     1  ZINC000572257265   -0.3900
     23 C23       -10.3381    0.1981   63.6329 C.ar    1  ZINC000572257265   -0.0400
     24 C24       -10.6693    0.1796   62.2909 C.ar    1  ZINC000572257265   -0.0400
     25 H25        -8.5339    3.6536   60.8786 H       1  ZINC000572257265    0.0800
     26 H26        -7.6494    5.0640   61.5086 H       1  ZINC000572257265    0.1000
     27 H27        -9.1147    5.2986   60.5256 H       1  ZINC000572257265    0.0800
     28 H28        -9.3669    4.2243   58.2038 H       1  ZINC000572257265    0.0900
     29 H29        -8.1431    4.5435   56.9513 H       1  ZINC000572257265    0.0900
     30 H30        -8.7713    2.4929   55.7080 H       1  ZINC000572257265    0.0800
     31 H31        -8.8302    0.9214   56.5418 H       1  ZINC000572257265    0.0700
     32 H32       -10.0431    2.1708   56.9110 H       1  ZINC000572257265    0.0800
     33 H33        -6.4702    2.6764   56.5521 H       1  ZINC000572257265    0.3800
     34 H34        -7.5253    1.8229   59.7009 H       1  ZINC000572257265    0.0900
     35 H35        -9.2112    2.3828   59.5886 H       1  ZINC000572257265    0.0800
     36 H36        -8.3939   -0.0630   58.1377 H       1  ZINC000572257265    0.4300
     37 H37        -7.6708   -0.6787   61.0063 H       1  ZINC000572257265    0.1500
     38 H38        -7.0791   -0.6395   63.3962 H       1  ZINC000572257265    0.1500
     39 H39        -9.8436    1.3434   67.0857 H       1  ZINC000572257265    0.4300
     40 H40        -7.7728    2.8947   66.2903 H       1  ZINC000572257265    0.1100
     41 H41        -8.5888    2.5461   64.7473 H       1  ZINC000572257265    0.1300
     42 H42       -11.0872    0.4446   64.3707 H       1  ZINC000572257265    0.1600
     43 H43       -11.6780    0.4090   61.9805 H       1  ZINC000572257265    0.1500
@<TRIPOS>BOND
     1     1     2    1
     2     1    25    1
     3     1    26    1
     4     1    27    1
     5     2     3    1
     6     3     4    1
     7     3    28    1
     8     3    29    1
     9     4     5    1
    10     4     6    1
    11     4     7    1
    12     5    30    1
    13     5    31    1
    14     5    32    1
    15     6    33    1
    16     7     8    1
    17     7    34    1
    18     7    35    1
    19     8     9   am
    20     8    36    1
    21     9    10    2
    22     9    11    2
    23     9    12    1
    24    12    24   ar
    25    12    13   ar
    26    13    14   ar
    27    13    37    1
    28    14    15   ar
    29    14    38    1
    30    15    16    1
    31    15    23   ar
    32    16    17    2
    33    16    18    2
    34    16    19   am
    35    19    20    1
    36    19    39    1
    37    20    21    1
    38    20    40    1
    39    20    41    1
    40    21    22    3
    41    23    24   ar
    42    23    42    1
    43    24    43    1
@<TRIPOS>SUBSTRUCTURE
     1 ZINC000572257265        1 TEMP              0 ****  ****    0 ROOT


##########                                Name:    ZINC000740930783
##########                DOCK_Rotatable_Bonds:                  11
##########                         Heavy_Atoms:                  27
##########                    Molecular_Weight:             413.257
##########                DOCK_Rotatable_Bonds:                  11
##########                       Formal_Charge:          -0.0100004
##########                     HBond_Acceptors:                   9
##########                        HBond_Donors:                   4
##########                         Heavy_Atoms:                  27
##########                          Grid_Score:          -31.957163
##########                     Grid_vdw_energy:          -29.678078
##########                      Grid_es_energy:           -2.279085
##########           Internal_energy_repulsive:           15.219139

@<TRIPOS>MOLECULE
ZINC000740930783
 45 46 1 0 0
SMALL
USER_CHARGES


@<TRIPOS>ATOM
      1 C1         -8.7907   -0.8896   60.5886 C.3     1  ZINC000740930783    0.0200
      2 O2        -10.0276   -0.3901   60.0760 O.3     1  ZINC000740930783   -0.3000
      3 C3        -10.4238   -0.8525   58.8600 C.ar    1  ZINC000740930783    0.1200
      4 C4         -9.7800   -0.4244   57.7153 C.ar    1  ZINC000740930783   -0.1400
      5 C5        -10.1889   -0.9015   56.4670 C.ar    1  ZINC000740930783   -0.0800
      6 C6         -9.5038   -0.4473   55.2409 C.2     1  ZINC000740930783    0.5600
      7 O7         -9.2885   -1.2329   54.3383 O.2     1  ZINC000740930783   -0.5300
      8 N8         -9.1169    0.8383   55.1221 N.am    1  ZINC000740930783   -0.7200
      9 C9         -8.4354    1.2887   53.9060 C.3     1  ZINC000740930783    0.0900
     10 C10        -8.0025    2.7465   54.0741 C.3     1  ZINC000740930783    0.1400
     11 H11        -7.4310    2.8518   54.9962 H       1  ZINC000740930783    0.1200
     12 O12        -9.1594    3.5833   54.1325 O.3     1  ZINC000740930783   -0.5500
     13 C13        -7.1461    3.1545   52.9031 C.ar    1  ZINC000740930783   -0.1100
     14 C14        -5.7938    3.3770   53.0801 C.ar    1  ZINC000740930783   -0.1000
     15 C15        -5.0080    3.7513   52.0058 C.ar    1  ZINC000740930783   -0.1100
     16 C16        -5.5747    3.9039   50.7545 C.ar    1  ZINC000740930783   -0.1000
     17 C17        -6.9274    3.6818   50.5761 C.ar    1  ZINC000740930783   -0.1100
     18 C18        -7.7128    3.3011   51.6493 C.ar    1  ZINC000740930783   -0.0300
     19 Cl19       -9.4116    3.0219   51.4262 Cl      1  ZINC000740930783   -0.0600
     20 C20       -11.2470   -1.8094   56.3818 C.ar    1  ZINC000740930783   -0.1000
     21 C21       -11.8857   -2.2330   57.5286 C.ar    1  ZINC000740930783   -0.0200
     22 Cl22      -13.2002   -3.3619   57.4213 Cl      1  ZINC000740930783   -0.0300
     23 C23       -11.4756   -1.7627   58.7693 C.ar    1  ZINC000740930783    0.0900
     24 O24       -12.1074   -2.1826   59.8959 O.3     1  ZINC000740930783   -0.2900
     25 C25       -13.0179   -1.2674   60.5086 C.3     1  ZINC000740930783    0.0400
     26 C26       -14.3372   -1.9554   60.7475 C.2     1  ZINC000740930783    0.5200
     27 N27       -14.3950   -3.3008   60.8049 N.am    1  ZINC000740930783   -0.8500
     28 O28       -15.3470   -1.2986   60.8879 O.2     1  ZINC000740930783   -0.5100
     29 H29        -8.8516   -1.9730   60.6927 H       1  ZINC000740930783    0.0600
     30 H30        -7.9835   -0.6355   59.9014 H       1  ZINC000740930783    0.0600
     31 H31        -8.5934   -0.4415   61.5624 H       1  ZINC000740930783    0.1100
     32 H32        -8.9626    0.2780   57.7847 H       1  ZINC000740930783    0.1600
     33 H33        -9.2897    1.4653   55.8417 H       1  ZINC000740930783    0.4100
     34 H34        -7.5575    0.6670   53.7301 H       1  ZINC000740930783    0.0900
     35 H35        -9.1145    1.2069   53.0574 H       1  ZINC000740930783    0.0800
     36 H36        -8.9619    4.5176   54.2847 H       1  ZINC000740930783    0.3800
     37 H37        -5.3507    3.2586   54.0578 H       1  ZINC000740930783    0.1300
     38 H38        -3.9511    3.9251   52.1447 H       1  ZINC000740930783    0.1300
     39 H39        -4.9605    4.1971   49.9157 H       1  ZINC000740930783    0.1400
     40 H40        -7.3699    3.8010   49.5982 H       1  ZINC000740930783    0.1400
     41 H41       -11.5651   -2.1793   55.4183 H       1  ZINC000740930783    0.1500
     42 H42       -12.6074   -0.9286   61.4599 H       1  ZINC000740930783    0.0900
     43 H43       -13.1686   -0.4104   59.8521 H       1  ZINC000740930783    0.0900
     44 H44       -15.2440   -3.7436   60.9597 H       1  ZINC000740930783    0.4000
     45 H45       -13.5876   -3.8262   60.6912 H       1  ZINC000740930783    0.4100
@<TRIPOS>BOND
     1     1     2    1
     2     1    29    1
     3     1    30    1
     4     1    31    1
     5     2     3    1
     6     3    23   ar
     7     3     4   ar
     8     4     5   ar
     9     4    32    1
    10     5     6    1
    11     5    20   ar
    12     6     7    2
    13     6     8   am
    14     8     9    1
    15     8    33    1
    16     9    10    1
    17     9    34    1
    18     9    35    1
    19    10    11    1
    20    10    12    1
    21    10    13    1
    22    12    36    1
    23    13    18   ar
    24    13    14   ar
    25    14    15   ar
    26    14    37    1
    27    15    16   ar
    28    15    38    1
    29    16    17   ar
    30    16    39    1
    31    17    18   ar
    32    17    40    1
    33    18    19    1
    34    20    21   ar
    35    20    41    1
    36    21    22    1
    37    21    23   ar
    38    23    24    1
    39    24    25    1
    40    25    26    1
    41    25    42    1
    42    25    43    1
    43    26    27   am
    44    26    28    2
    45    27    44    1
    46    27    45    1
@<TRIPOS>SUBSTRUCTURE
     1 ZINC000740930783        1 TEMP              0 ****  ****    0 ROOT


##########                                Name:    ZINC001579482641
##########                DOCK_Rotatable_Bonds:                   5
##########                         Heavy_Atoms:                  26
##########                    Molecular_Weight:             355.359
##########                DOCK_Rotatable_Bonds:                   5
##########                       Formal_Charge:                0.05
##########                     HBond_Acceptors:                  11
##########                        HBond_Donors:                   1
##########                         Heavy_Atoms:                  26
##########                          Grid_Score:          -31.940426
##########                     Grid_vdw_energy:          -29.340443
##########                      Grid_es_energy:           -2.599983
##########           Internal_energy_repulsive:           13.124363

@<TRIPOS>MOLECULE
ZINC001579482641
 43 46 1 0 0
SMALL
USER_CHARGES


@<TRIPOS>ATOM
      1 C1        -10.8948    1.2855   65.5941 C.3     1  ZINC001579482641    0.0300
      2 O2         -9.8230    0.4089   66.0315 O.3     1  ZINC001579482641   -0.3300
      3 C3         -8.7918    0.2328   65.1825 C.2     1  ZINC001579482641    0.5300
      4 O4         -7.7388   -0.2149   65.5905 O.2     1  ZINC001579482641   -0.4900
      5 C5         -8.9417    0.5842   63.7554 C.ar    1  ZINC001579482641    0.0900
      6 C6         -8.5509    1.8490   63.3125 C.ar    1  ZINC001579482641   -0.0800
      7 C7         -8.6932    2.1731   61.9756 C.ar    1  ZINC001579482641   -0.1200
      8 C8         -9.2256    1.2181   61.1128 C.ar    1  ZINC001579482641    0.1100
      9 N9         -9.3857    1.5008   59.7631 N.3     1  ZINC001579482641   -0.4600
     10 C10       -10.2875    2.6643   59.5662 C.3     1  ZINC001579482641    0.0400
     11 C11        -9.9364    3.1472   58.1365 C.3     1  ZINC001579482641   -0.1100
     12 C12        -8.4067    2.9346   58.0657 C.3     1  ZINC001579482641   -0.0100
     13 H13        -7.8849    3.8659   58.2860 H       1  ZINC001579482641    0.0900
     14 C14        -8.0120    2.4242   56.7039 C.2     1  ZINC001579482641    0.1800
     15 N15        -8.6401    1.5178   56.0056 N.2     1  ZINC001579482641   -0.2600
     16 N16        -8.0263    1.3272   54.8918 N.2     1  ZINC001579482641   -0.2900
     17 C17        -6.9788    2.1033   54.8289 C.2     1  ZINC001579482641    0.1500
     18 N18        -6.9427    2.8253   55.9749 N.pl3   1  ZINC001579482641   -0.4800
     19 C19        -5.9451    3.8295   56.3529 C.3     1  ZINC001579482641    0.0700
     20 C20        -8.0969    1.8803   59.1446 C.3     1  ZINC001579482641    0.0600
     21 C21        -9.5981   -0.0356   61.6269 C.ar    1  ZINC001579482641    0.2300
     22 C22       -10.1666   -1.0630   60.7200 C.2     1  ZINC001579482641    0.2100
     23 N23        -9.7603   -1.3467   59.4983 N.2     1  ZINC001579482641   -0.2600
     24 N24       -10.5064   -2.2946   59.0449 N.pl3   1  ZINC001579482641   -0.2300
     25 N25       -11.3723   -2.6205   59.9399 N.2     1  ZINC001579482641   -0.0500
     26 N26       -11.1900   -1.8876   60.9855 N.2     1  ZINC001579482641   -0.2000
     27 N27        -9.4415   -0.3091   62.9094 N.ar    1  ZINC001579482641   -0.4000
     28 H28       -11.3341    0.8927   64.6771 H       1  ZINC001579482641    0.0700
     29 H29       -11.6592    1.3395   66.3692 H       1  ZINC001579482641    0.1100
     30 H30       -10.4954    2.2824   65.4075 H       1  ZINC001579482641    0.0700
     31 H31        -8.1417    2.5676   64.0073 H       1  ZINC001579482641    0.1600
     32 H32        -8.3985    3.1452   61.6088 H       1  ZINC001579482641    0.1600
     33 H33       -11.3315    2.3558   59.6225 H       1  ZINC001579482641    0.1000
     34 H34       -10.0756    3.4435   60.2984 H       1  ZINC001579482641    0.0600
     35 H35       -10.4453    2.5394   57.3882 H       1  ZINC001579482641    0.1000
     36 H36       -10.1855    4.2011   58.0133 H       1  ZINC001579482641    0.0800
     37 H37        -6.2737    2.1621   54.0129 H       1  ZINC001579482641    0.2200
     38 H38        -6.2665    4.8105   56.0030 H       1  ZINC001579482641    0.0800
     39 H39        -5.8402    3.8471   57.4377 H       1  ZINC001579482641    0.0900
     40 H40        -4.9864    3.5780   55.8992 H       1  ZINC001579482641    0.0900
     41 H41        -7.4338    2.3044   59.8986 H       1  ZINC001579482641    0.0600
     42 H42        -7.6329    1.0065   58.6873 H       1  ZINC001579482641    0.1000
     43 H43       -10.4280   -2.6989   58.1665 H       1  ZINC001579482641    0.4800
@<TRIPOS>BOND
     1     1     2    1
     2     1    28    1
     3     1    29    1
     4     1    30    1
     5     2     3    1
     6     3     4    2
     7     3     5    1
     8     5    27   ar
     9     5     6   ar
    10     6     7   ar
    11     6    31    1
    12     7     8   ar
    13     7    32    1
    14     8     9    1
    15     8    21   ar
    16     9    20    1
    17     9    10    1
    18    10    11    1
    19    10    33    1
    20    10    34    1
    21    11    12    1
    22    11    35    1
    23    11    36    1
    24    12    13    1
    25    12    14    1
    26    12    20    1
    27    14    18    1
    28    14    15    2
    29    15    16    1
    30    16    17    2
    31    17    18    1
    32    17    37    1
    33    18    19    1
    34    19    38    1
    35    19    39    1
    36    19    40    1
    37    20    41    1
    38    20    42    1
    39    21    22    1
    40    21    27   ar
    41    22    26    1
    42    22    23    2
    43    23    24    1
    44    24    25    1
    45    24    43    1
    46    25    26    2
@<TRIPOS>SUBSTRUCTURE
     1 ZINC001579482641        1 TEMP              0 ****  ****    0 ROOT


##########                                Name:    ZINC001342153661
##########                DOCK_Rotatable_Bonds:                   8
##########                         Heavy_Atoms:                  29
##########                    Molecular_Weight:             395.548
##########                DOCK_Rotatable_Bonds:                   8
##########                       Formal_Charge:          -0.0400005
##########                     HBond_Acceptors:                   6
##########                        HBond_Donors:                   1
##########                         Heavy_Atoms:                  29
##########                          Grid_Score:          -31.932299
##########                     Grid_vdw_energy:          -30.055647
##########                      Grid_es_energy:           -1.876651
##########           Internal_energy_repulsive:           17.452908

@<TRIPOS>MOLECULE
ZINC001342153661
 62 65 1 0 0
SMALL
USER_CHARGES


@<TRIPOS>ATOM
      1 C1        -12.4593    2.5881   56.5610 C.2     1  ZINC001342153661   -0.1400
      2 C2        -12.2605    1.6872   57.4911 C.2     1  ZINC001342153661   -0.1600
      3 C3        -13.4352    0.9958   58.1338 C.3     1  ZINC001342153661   -0.1200
      4 C4        -10.8571    1.3425   57.9185 C.3     1  ZINC001342153661    0.1500
      5 N5        -10.6372   -0.0969   57.7575 N.pl3   1  ZINC001342153661   -0.4700
      6 C6        -10.6124   -1.0436   58.7440 C.2     1  ZINC001342153661    0.1800
      7 C7        -10.8081   -0.8023   60.2185 C.3     1  ZINC001342153661   -0.0600
      8 C8         -9.4964   -1.0726   60.9582 C.3     1  ZINC001342153661    0.1600
      9 H9         -9.3900   -2.1438   61.1294 H       1  ZINC001342153661    0.1000
     10 O10        -8.3999   -0.6052   60.1698 O.3     1  ZINC001342153661   -0.5400
     11 C11        -9.5076   -0.3510   62.2812 C.ar    1  ZINC001342153661   -0.1700
     12 C12        -8.3192   -0.0677   62.9361 C.ar    1  ZINC001342153661   -0.0600
     13 C13        -8.3777    0.5985   64.1510 C.ar    1  ZINC001342153661   -0.1700
     14 C14        -9.6100    0.9551   64.6646 C.ar    1  ZINC001342153661    0.1000
     15 N15       -10.7207    0.6692   64.0135 N.ar    1  ZINC001342153661   -0.4800
     16 C16       -10.7026    0.0418   62.8540 C.ar    1  ZINC001342153661    0.1100
     17 N17       -10.3889   -2.1930   58.1725 N.2     1  ZINC001342153661   -0.2700
     18 N18       -10.2717   -2.0382   56.9020 N.2     1  ZINC001342153661   -0.3200
     19 C19       -10.4204   -0.7719   56.5916 C.2     1  ZINC001342153661    0.3600
     20 N20       -10.3601   -0.2225   55.3208 N.3     1  ZINC001342153661   -0.4500
     21 C21       -10.8239   -1.1817   54.3102 C.3     1  ZINC001342153661    0.0500
     22 C22       -10.8815   -0.4964   52.9431 C.3     1  ZINC001342153661   -0.1200
     23 C23        -9.4879    0.0232   52.5789 C.3     1  ZINC001342153661   -0.1200
     24 C24        -9.0080    0.9826   53.6715 C.3     1  ZINC001342153661   -0.0800
     25 H25        -9.6788    1.8401   53.7233 H       1  ZINC001342153661    0.0800
     26 C26        -7.5918    1.4610   53.3451 C.3     1  ZINC001342153661   -0.0800
     27 C27        -7.5916    2.3105   52.0501 C.3     1  ZINC001342153661   -0.1200
     28 C28        -6.3139    3.1720   52.2065 C.3     1  ZINC001342153661   -0.1300
     29 C29        -6.2726    3.5179   53.7094 C.3     1  ZINC001342153661   -0.1300
     30 C30        -7.0851    2.4300   54.4333 C.3     1  ZINC001342153661   -0.1200
     31 C31        -9.0047    0.2544   55.0176 C.3     1  ZINC001342153661    0.0800
     32 H32       -13.4651    2.8351   56.2547 H       1  ZINC001342153661    0.1000
     33 H33       -11.6176    3.0867   56.1035 H       1  ZINC001342153661    0.1100
     34 H34       -13.7329    0.1428   57.5241 H       1  ZINC001342153661    0.0700
     35 H35       -13.1539    0.6507   59.1287 H       1  ZINC001342153661    0.0600
     36 H36       -14.2686    1.6938   58.2137 H       1  ZINC001342153661    0.0700
     37 H37       -10.1446    1.8901   57.3015 H       1  ZINC001342153661    0.1000
     38 H38       -10.7181    1.6166   58.9642 H       1  ZINC001342153661    0.1000
     39 H39       -11.1098    0.2326   60.3804 H       1  ZINC001342153661    0.1100
     40 H40       -11.5825   -1.4698   60.5964 H       1  ZINC001342153661    0.1000
     41 H41        -7.5522   -0.6069   60.6350 H       1  ZINC001342153661    0.3800
     42 H42        -7.3702   -0.3592   62.5107 H       1  ZINC001342153661    0.1300
     43 H43        -7.4717    0.8351   64.6891 H       1  ZINC001342153661    0.1400
     44 H44        -9.6641    1.4739   65.6103 H       1  ZINC001342153661    0.1600
     45 H45       -11.6329   -0.1754   62.3500 H       1  ZINC001342153661    0.1500
     46 H46       -10.1337   -2.0242   54.2653 H       1  ZINC001342153661    0.0500
     47 H47       -11.8176   -1.5403   54.5790 H       1  ZINC001342153661    0.0700
     48 H48       -11.2109   -1.2128   52.1905 H       1  ZINC001342153661    0.0800
     49 H49       -11.5819    0.3378   52.9834 H       1  ZINC001342153661    0.0700
     50 H50        -8.7957   -0.8150   52.5004 H       1  ZINC001342153661    0.0600
     51 H51        -9.5333    0.5500   51.6258 H       1  ZINC001342153661    0.0700
     52 H52        -6.9164    0.6113   53.2465 H       1  ZINC001342153661    0.0800
     53 H53        -7.5215    1.6721   51.1693 H       1  ZINC001342153661    0.0700
     54 H54        -8.4792    2.9413   52.0017 H       1  ZINC001342153661    0.0700
     55 H55        -5.4308    2.5997   51.9223 H       1  ZINC001342153661    0.0600
     56 H56        -6.3902    4.0798   51.6081 H       1  ZINC001342153661    0.0600
     57 H57        -5.2424    3.5134   54.0653 H       1  ZINC001342153661    0.0600
     58 H58        -6.7228    4.4958   53.8799 H       1  ZINC001342153661    0.0600
     59 H59        -7.9297    2.8800   54.9552 H       1  ZINC001342153661    0.0600
     60 H60        -6.4492    1.8977   55.1406 H       1  ZINC001342153661    0.0600
     61 H61        -8.6770    0.9389   55.7999 H       1  ZINC001342153661    0.0900
     62 H62        -8.3231   -0.5948   54.9694 H       1  ZINC001342153661    0.0500
@<TRIPOS>BOND
     1     1     2    2
     2     1    32    1
     3     1    33    1
     4     2     3    1
     5     2     4    1
     6     3    34    1
     7     3    35    1
     8     3    36    1
     9     4     5    1
    10     4    37    1
    11     4    38    1
    12     5    19    1
    13     5     6    1
    14     6     7    1
    15     6    17    2
    16     7     8    1
    17     7    39    1
    18     7    40    1
    19     8     9    1
    20     8    10    1
    21     8    11    1
    22    10    41    1
    23    11    16   ar
    24    11    12   ar
    25    12    13   ar
    26    12    42    1
    27    13    14   ar
    28    13    43    1
    29    14    15   ar
    30    14    44    1
    31    15    16   ar
    32    16    45    1
    33    17    18    1
    34    18    19    2
    35    19    20    1
    36    20    31    1
    37    20    21    1
    38    21    22    1
    39    21    46    1
    40    21    47    1
    41    22    23    1
    42    22    48    1
    43    22    49    1
    44    23    24    1
    45    23    50    1
    46    23    51    1
    47    24    25    1
    48    24    26    1
    49    24    31    1
    50    26    30    1
    51    26    27    1
    52    26    52    1
    53    27    28    1
    54    27    53    1
    55    27    54    1
    56    28    29    1
    57    28    55    1
    58    28    56    1
    59    29    30    1
    60    29    57    1
    61    29    58    1
    62    30    59    1
    63    30    60    1
    64    31    61    1
    65    31    62    1
@<TRIPOS>SUBSTRUCTURE
     1 ZINC001342153661        1 TEMP              0 ****  ****    0 ROOT


##########                                Name:    ZINC000805177769
##########                DOCK_Rotatable_Bonds:                  10
##########                         Heavy_Atoms:                  30
##########                    Molecular_Weight:             417.548
##########                DOCK_Rotatable_Bonds:                  10
##########                       Formal_Charge:           0.0199995
##########                     HBond_Acceptors:                   7
##########                        HBond_Donors:                   1
##########                         Heavy_Atoms:                  30
##########                          Grid_Score:          -31.872761
##########                     Grid_vdw_energy:          -29.950480
##########                      Grid_es_energy:           -1.922281
##########           Internal_energy_repulsive:           50.806786

@<TRIPOS>MOLECULE
ZINC000805177769
 65 66 1 0 0
SMALL
USER_CHARGES


@<TRIPOS>ATOM
      1 C1          0.5695   -1.7488   48.5201 C.3     1  ZINC000805177769   -0.1200
      2 C2          1.2660   -0.9300   49.5763 C.ar    1  ZINC000805177769   -0.0800
      3 C3          0.8262   -0.9732   50.8858 C.ar    1  ZINC000805177769   -0.1200
      4 C4          1.4652   -0.2219   51.8548 C.ar    1  ZINC000805177769   -0.1100
      5 C5          2.5440    0.5720   51.5139 C.ar    1  ZINC000805177769   -0.0900
      6 C6          3.2402    1.3911   52.5699 C.3     1  ZINC000805177769   -0.0900
      7 C7          2.7068    2.8248   52.5372 C.3     1  ZINC000805177769    0.1500
      8 H8          2.4459    3.0921   51.5132 H       1  ZINC000805177769    0.1000
      9 C9          3.7826    3.7812   53.0555 C.3     1  ZINC000805177769   -0.1700
     10 N10         1.5166    2.9226   53.3856 N.am    1  ZINC000805177769   -0.6900
     11 C11         0.5978    3.8801   53.1502 C.2     1  ZINC000805177769    0.5100
     12 O12         0.7572    4.6622   52.2362 O.2     1  ZINC000805177769   -0.5100
     13 C13        -0.6172    3.9786   54.0147 C.2     1  ZINC000805177769    0.5200
     14 O14        -0.5342    3.7595   55.2053 O.2     1  ZINC000805177769   -0.5200
     15 N15        -1.8053    4.3108   53.4719 N.am    1  ZINC000805177769   -0.5900
     16 C16        -2.0471    4.6011   52.0511 C.3     1  ZINC000805177769    0.1100
     17 C17        -3.5524    4.9027   51.8946 C.3     1  ZINC000805177769   -0.1500
     18 C18        -4.1760    4.2121   53.1364 C.3     1  ZINC000805177769    0.1500
     19 H19        -4.3287    3.1480   52.9562 H       1  ZINC000805177769    0.1200
     20 N20        -5.4308    4.8617   53.5235 N.am    1  ZINC000805177769   -0.5900
     21 C21        -5.4939    6.3205   53.6435 C.3     1  ZINC000805177769    0.0800
     22 C22        -6.5270    4.1173   53.7696 C.2     1  ZINC000805177769    0.6600
     23 O23        -7.5673    4.6559   54.0923 O.2     1  ZINC000805177769   -0.5600
     24 O24        -6.4693    2.7768   53.6579 O.3     1  ZINC000805177769   -0.3600
     25 C25        -7.6535    2.0315   54.0462 C.3     1  ZINC000805177769    0.1400
     26 C26        -8.0120    2.3627   55.4963 C.3     1  ZINC000805177769   -0.1800
     27 C27        -8.8194    2.4144   53.1325 C.3     1  ZINC000805177769   -0.1400
     28 C28        -7.3769    0.5321   53.9189 C.3     1  ZINC000805177769   -0.1800
     29 C29        -3.0789    4.4371   54.2036 C.3     1  ZINC000805177769    0.0900
     30 C30         2.9848    0.6141   50.2042 C.ar    1  ZINC000805177769   -0.0800
     31 C31         4.1614    1.4793   49.8326 C.3     1  ZINC000805177769   -0.1200
     32 C32         2.3484   -0.1399   49.2362 C.ar    1  ZINC000805177769   -0.1200
     33 H33         1.0354   -2.7322   48.4568 H       1  ZINC000805177769    0.0700
     34 H34        -0.4824   -1.8614   48.7826 H       1  ZINC000805177769    0.0700
     35 H35         0.6517   -1.2452   47.5569 H       1  ZINC000805177769    0.0700
     36 H36        -0.0168   -1.5935   51.1521 H       1  ZINC000805177769    0.1200
     37 H37         1.1210   -0.2551   52.8779 H       1  ZINC000805177769    0.1200
     38 H38         3.0511    0.9556   53.5510 H       1  ZINC000805177769    0.0800
     39 H39         4.3128    1.3980   52.3760 H       1  ZINC000805177769    0.0900
     40 H40         4.0435    3.5139   54.0795 H       1  ZINC000805177769    0.0600
     41 H41         4.6682    3.7085   52.4241 H       1  ZINC000805177769    0.0700
     42 H42         3.4027    4.8026   53.0321 H       1  ZINC000805177769    0.0600
     43 H43         1.3897    2.2981   54.1170 H       1  ZINC000805177769    0.4100
     44 H44        -1.4616    5.4681   51.7449 H       1  ZINC000805177769    0.0900
     45 H45        -1.7773    3.7363   51.4449 H       1  ZINC000805177769    0.0900
     46 H46        -3.7351    5.9770   51.9184 H       1  ZINC000805177769    0.0900
     47 H47        -3.9399    4.4648   50.9748 H       1  ZINC000805177769    0.0900
     48 H48        -5.7788    6.7519   52.6839 H       1  ZINC000805177769    0.0600
     49 H49        -6.2330    6.5914   54.3974 H       1  ZINC000805177769    0.0800
     50 H50        -4.5168    6.7034   53.9383 H       1  ZINC000805177769    0.0800
     51 H51        -8.2089    3.4309   55.5870 H       1  ZINC000805177769    0.0600
     52 H52        -8.9008    1.8032   55.7877 H       1  ZINC000805177769    0.0700
     53 H53        -7.1813    2.0899   56.1473 H       1  ZINC000805177769    0.0900
     54 H54        -8.5641    2.1784   52.0994 H       1  ZINC000805177769    0.0700
     55 H55        -9.7083    1.8549   53.4239 H       1  ZINC000805177769    0.0800
     56 H56        -9.0164    3.4826   53.2232 H       1  ZINC000805177769    0.0700
     57 H57        -6.5463    0.2593   54.5699 H       1  ZINC000805177769    0.0900
     58 H58        -8.2658   -0.0274   54.2103 H       1  ZINC000805177769    0.0700
     59 H59        -7.1215    0.2962   52.8859 H       1  ZINC000805177769    0.0600
     60 H60        -3.1484    3.6800   54.9845 H       1  ZINC000805177769    0.0900
     61 H61        -3.1663    5.4352   54.6329 H       1  ZINC000805177769    0.0800
     62 H62         5.0816    0.9034   49.9320 H       1  ZINC000805177769    0.0700
     63 H63         4.0534    1.8164   48.8017 H       1  ZINC000805177769    0.0700
     64 H64         4.2005    2.3437   50.4953 H       1  ZINC000805177769    0.0700
     65 H65         2.6927   -0.1070   48.2131 H       1  ZINC000805177769    0.1200
@<TRIPOS>BOND
     1     1     2    1
     2     1    33    1
     3     1    34    1
     4     1    35    1
     5     2    32   ar
     6     2     3   ar
     7     3     4   ar
     8     3    36    1
     9     4     5   ar
    10     4    37    1
    11     5     6    1
    12     5    30   ar
    13     6     7    1
    14     6    38    1
    15     6    39    1
    16     7     8    1
    17     7     9    1
    18     7    10    1
    19     9    40    1
    20     9    41    1
    21     9    42    1
    22    10    11   am
    23    10    43    1
    24    11    12    2
    25    11    13    1
    26    13    14    2
    27    13    15   am
    28    15    29    1
    29    15    16    1
    30    16    17    1
    31    16    44    1
    32    16    45    1
    33    17    18    1
    34    17    46    1
    35    17    47    1
    36    18    19    1
    37    18    20    1
    38    18    29    1
    39    20    21    1
    40    20    22   am
    41    21    48    1
    42    21    49    1
    43    21    50    1
    44    22    23    2
    45    22    24    1
    46    24    25    1
    47    25    26    1
    48    25    27    1
    49    25    28    1
    50    26    51    1
    51    26    52    1
    52    26    53    1
    53    27    54    1
    54    27    55    1
    55    27    56    1
    56    28    57    1
    57    28    58    1
    58    28    59    1
    59    29    60    1
    60    29    61    1
    61    30    31    1
    62    30    32   ar
    63    31    62    1
    64    31    63    1
    65    31    64    1
    66    32    65    1
@<TRIPOS>SUBSTRUCTURE
     1 ZINC000805177769        1 TEMP              0 ****  ****    0 ROOT


##########                                Name:    ZINC000523878927
##########                DOCK_Rotatable_Bonds:                   8
##########                         Heavy_Atoms:                  27
##########                    Molecular_Weight:             376.474
##########                DOCK_Rotatable_Bonds:                   8
##########                       Formal_Charge:          0.00999957
##########                     HBond_Acceptors:                   7
##########                        HBond_Donors:                   3
##########                         Heavy_Atoms:                  27
##########                          Grid_Score:          -31.872744
##########                     Grid_vdw_energy:          -30.913111
##########                      Grid_es_energy:           -0.959633
##########           Internal_energy_repulsive:            7.030735

@<TRIPOS>MOLECULE
ZINC000523878927
 56 58 1 0 0
SMALL
USER_CHARGES


@<TRIPOS>ATOM
      1 C1         -9.0713    3.1445   51.5899 C.3     1  ZINC000523878927   -0.1500
      2 C2         -9.2239    3.2142   53.1106 C.3     1  ZINC000523878927   -0.0900
      3 H3         -9.9082    4.0218   53.3705 H       1  ZINC000523878927    0.0700
      4 C4         -7.8583    3.4778   53.7486 C.3     1  ZINC000523878927   -0.1200
      5 C5         -6.8977    2.3442   53.3838 C.3     1  ZINC000523878927   -0.1200
      6 C6         -7.4550    1.0168   53.9019 C.3     1  ZINC000523878927   -0.1100
      7 C7         -8.8205    0.7533   53.2639 C.3     1  ZINC000523878927   -0.1000
      8 H8         -8.7118    0.7036   52.1806 H       1  ZINC000523878927    0.0800
      9 C9         -9.3778   -0.5740   53.7821 C.3     1  ZINC000523878927    0.1400
     10 N10        -9.5432   -0.5000   55.2359 N.am    1  ZINC000523878927   -0.7400
     11 C11       -10.1142   -1.5230   55.9021 C.2     1  ZINC000523878927    0.7200
     12 O12       -10.4932   -2.5068   55.2965 O.2     1  ZINC000523878927   -0.5800
     13 N13       -10.2650   -1.4554   57.2397 N.am    1  ZINC000523878927   -0.6400
     14 C14       -10.8697   -2.4969   58.0900 C.3     1  ZINC000523878927    0.1000
     15 C15       -10.2677   -2.2589   59.4973 C.3     1  ZINC000523878927   -0.1400
     16 C16       -10.1981   -0.7097   59.5484 C.3     1  ZINC000523878927    0.1500
     17 H17       -11.1613   -0.2898   59.8380 H       1  ZINC000523878927    0.1100
     18 N18        -9.1452   -0.2682   60.4664 N.am    1  ZINC000523878927   -0.7300
     19 C19        -9.4647    0.1484   61.7077 C.2     1  ZINC000523878927    0.7100
     20 O20       -10.6265    0.1564   62.0662 O.2     1  ZINC000523878927   -0.5700
     21 N21        -8.4962    0.5561   62.5518 N.am    1  ZINC000523878927   -0.6800
     22 C22        -8.8282    0.9891   63.8417 C.ar    1  ZINC000523878927    0.1500
     23 C23        -9.0056    0.0637   64.8615 C.ar    1  ZINC000523878927   -0.1200
     24 C24        -9.3324    0.4927   66.1329 C.ar    1  ZINC000523878927   -0.1300
     25 C25        -9.4838    1.8447   66.3909 C.ar    1  ZINC000523878927    0.0800
     26 F26        -9.8040    2.2623   67.6352 F       1  ZINC000523878927   -0.1400
     27 C27        -9.3068    2.7692   65.3754 C.ar    1  ZINC000523878927   -0.1300
     28 C28        -8.9747    2.3446   64.1038 C.ar    1  ZINC000523878927   -0.0900
     29 C29        -9.8478   -0.3334   58.0934 C.3     1  ZINC000523878927    0.1200
     30 C30        -9.7812    1.8869   53.6287 C.3     1  ZINC000523878927   -0.1100
     31 H31       -10.0441    2.9568   51.1354 H       1  ZINC000523878927    0.0500
     32 H32        -8.6743    4.0901   51.2208 H       1  ZINC000523878927    0.0500
     33 H33        -8.3870    2.3369   51.3300 H       1  ZINC000523878927    0.0600
     34 H34        -7.4613    4.4234   53.3795 H       1  ZINC000523878927    0.0600
     35 H35        -7.9671    3.5274   54.8321 H       1  ZINC000523878927    0.0600
     36 H36        -6.7891    2.2945   52.3005 H       1  ZINC000523878927    0.0700
     37 H37        -5.9250    2.5320   53.8383 H       1  ZINC000523878927    0.0600
     38 H38        -6.7706    0.2092   53.6420 H       1  ZINC000523878927    0.0600
     39 H39        -7.5637    1.0665   54.9854 H       1  ZINC000523878927    0.0600
     40 H40       -10.3435   -0.7694   53.3160 H       1  ZINC000523878927    0.0700
     41 H41        -8.6858   -1.3795   53.5358 H       1  ZINC000523878927    0.0700
     42 H42        -9.2419    0.2854   55.7188 H       1  ZINC000523878927    0.3900
     43 H43       -11.9534   -2.3829   58.1166 H       1  ZINC000523878927    0.0800
     44 H44       -10.6006   -3.4881   57.7249 H       1  ZINC000523878927    0.0800
     45 H45       -10.9265   -2.6462   60.2746 H       1  ZINC000523878927    0.1000
     46 H46        -9.2730   -2.6975   59.5761 H       1  ZINC000523878927    0.0800
     47 H47        -8.2183   -0.2757   60.1809 H       1  ZINC000523878927    0.4000
     48 H48        -7.5694    0.5496   62.2658 H       1  ZINC000523878927    0.4100
     49 H49        -8.8883   -0.9910   64.6604 H       1  ZINC000523878927    0.1400
     50 H50        -9.4705   -0.2269   66.9264 H       1  ZINC000523878927    0.1400
     51 H51        -9.4252    3.8234   65.5787 H       1  ZINC000523878927    0.1400
     52 H52        -8.8365    3.0661   63.3121 H       1  ZINC000523878927    0.1500
     53 H53        -8.7741   -0.1701   58.0010 H       1  ZINC000523878927    0.0700
     54 H54       -10.3883    0.5675   57.8032 H       1  ZINC000523878927    0.0800
     55 H55        -9.8898    1.9365   54.7122 H       1  ZINC000523878927    0.0700
     56 H56       -10.7540    1.6991   53.1743 H       1  ZINC000523878927    0.0700
@<TRIPOS>BOND
     1     1     2    1
     2     1    31    1
     3     1    32    1
     4     1    33    1
     5     2     3    1
     6     2    30    1
     7     2     4    1
     8     4     5    1
     9     4    34    1
    10     4    35    1
    11     5     6    1
    12     5    36    1
    13     5    37    1
    14     6     7    1
    15     6    38    1
    16     6    39    1
    17     7     8    1
    18     7     9    1
    19     7    30    1
    20     9    10    1
    21     9    40    1
    22     9    41    1
    23    10    11   am
    24    10    42    1
    25    11    12    2
    26    11    13   am
    27    13    29    1
    28    13    14    1
    29    14    15    1
    30    14    43    1
    31    14    44    1
    32    15    16    1
    33    15    45    1
    34    15    46    1
    35    16    17    1
    36    16    18    1
    37    16    29    1
    38    18    19   am
    39    18    47    1
    40    19    20    2
    41    19    21   am
    42    21    22    1
    43    21    48    1
    44    22    28   ar
    45    22    23   ar
    46    23    24   ar
    47    23    49    1
    48    24    25   ar
    49    24    50    1
    50    25    26    1
    51    25    27   ar
    52    27    28   ar
    53    27    51    1
    54    28    52    1
    55    29    53    1
    56    29    54    1
    57    30    55    1
    58    30    56    1
@<TRIPOS>SUBSTRUCTURE
     1 ZINC000523878927        1 TEMP              0 ****  ****    0 ROOT


##########                                Name:    ZINC000501032137
##########                DOCK_Rotatable_Bonds:                  10
##########                         Heavy_Atoms:                  25
##########                    Molecular_Weight:             407.307
##########                DOCK_Rotatable_Bonds:                  10
##########                       Formal_Charge:           0.0099998
##########                     HBond_Acceptors:                   5
##########                        HBond_Donors:                   1
##########                         Heavy_Atoms:                  25
##########                          Grid_Score:          -31.867857
##########                     Grid_vdw_energy:          -31.719284
##########                      Grid_es_energy:           -0.148574
##########           Internal_energy_repulsive:            9.506152

@<TRIPOS>MOLECULE
ZINC000501032137
 48 50 1 0 0
SMALL
USER_CHARGES


@<TRIPOS>ATOM
      1 C1         -9.6323    1.6151   65.1597 C.3     1  ZINC000501032137   -0.1500
      2 C2         -9.0053    0.4552   64.3835 C.3     1  ZINC000501032137   -0.1200
      3 C3         -9.0686    0.7519   62.8839 C.3     1  ZINC000501032137    0.0600
      4 O4         -8.8512   -0.4549   62.1501 O.3     1  ZINC000501032137   -0.3800
      5 C5         -8.4858   -0.2468   60.7843 C.3     1  ZINC000501032137    0.0500
      6 C6         -9.6930   -0.5224   59.8856 C.3     1  ZINC000501032137    0.1600
      7 H7        -10.4720    0.2125   60.0882 H       1  ZINC000501032137    0.1000
      8 C8        -10.2302   -1.9266   60.1698 C.3     1  ZINC000501032137   -0.0900
      9 C9        -11.6982   -1.9803   59.8336 C.ar    1  ZINC000501032137   -0.0600
     10 C10       -12.5912   -1.1673   60.5061 C.ar    1  ZINC000501032137   -0.0900
     11 C11       -13.9382   -1.2161   60.1981 C.ar    1  ZINC000501032137   -0.1100
     12 C12       -14.3923   -2.0779   59.2179 C.ar    1  ZINC000501032137   -0.0900
     13 C13       -13.4989   -2.8918   58.5446 C.ar    1  ZINC000501032137   -0.0800
     14 Br14      -14.1197   -4.0714   57.2032 Br      1  ZINC000501032137   -0.0600
     15 C15       -12.1508   -2.8385   58.8490 C.ar    1  ZINC000501032137   -0.0800
     16 N16        -9.2875   -0.4297   58.4810 N.am    1  ZINC000501032137   -0.7100
     17 C17        -9.1165    0.7777   57.9072 C.2     1  ZINC000501032137    0.6100
     18 O18        -9.2975    1.7903   58.5559 O.2     1  ZINC000501032137   -0.5200
     19 C19        -8.7102    0.8710   56.4932 C.2     1  ZINC000501032137   -0.0800
     20 C20        -9.3602    0.3286   55.4276 C.2     1  ZINC000501032137    0.0800
     21 C21       -10.6306   -0.4809   55.4691 C.3     1  ZINC000501032137   -0.0800
     22 C22       -11.1386   -1.0663   54.1500 C.3     1  ZINC000501032137   -0.1700
     23 C23       -10.5194   -1.9840   55.2061 C.3     1  ZINC000501032137   -0.1500
     24 O24        -8.6544    0.6524   54.3324 O.3     1  ZINC000501032137   -0.2000
     25 C25        -7.5942    1.3775   54.7160 C.2     1  ZINC000501032137    0.1800
     26 N26        -7.6178    1.5206   56.0072 N.2     1  ZINC000501032137   -0.4600
     27 H27        -9.0839    2.5329   64.9475 H       1  ZINC000501032137    0.0600
     28 H28       -10.6724    1.7349   64.8566 H       1  ZINC000501032137    0.0600
     29 H29        -9.5872    1.4037   66.2281 H       1  ZINC000501032137    0.0600
     30 H30        -7.9651    0.3354   64.6866 H       1  ZINC000501032137    0.0700
     31 H31        -9.5536   -0.4626   64.5958 H       1  ZINC000501032137    0.0700
     32 H32       -10.0493    1.1570   62.6348 H       1  ZINC000501032137    0.0500
     33 H33        -8.2986    1.4785   62.6245 H       1  ZINC000501032137    0.0500
     34 H34        -8.1597    0.7844   60.6485 H       1  ZINC000501032137    0.0700
     35 H35        -7.6731   -0.9228   60.5186 H       1  ZINC000501032137    0.0600
     36 H36        -9.6912   -2.6519   59.5604 H       1  ZINC000501032137    0.0900
     37 H37       -10.0901   -2.1626   61.2246 H       1  ZINC000501032137    0.0800
     38 H38       -12.2367   -0.4939   61.2724 H       1  ZINC000501032137    0.1200
     39 H39       -14.6357   -0.5809   60.7239 H       1  ZINC000501032137    0.1300
     40 H40       -15.4446   -2.1162   58.9776 H       1  ZINC000501032137    0.1300
     41 H41       -11.4529   -3.4735   58.3235 H       1  ZINC000501032137    0.1200
     42 H42        -9.1419   -1.2374   57.9639 H       1  ZINC000501032137    0.4100
     43 H43       -11.3752   -0.1505   56.1934 H       1  ZINC000501032137    0.1500
     44 H44       -12.2178   -1.1209   54.0062 H       1  ZINC000501032137    0.1100
     45 H45       -10.5540   -0.8660   53.2522 H       1  ZINC000501032137    0.1000
     46 H46        -9.5274   -2.3874   55.0030 H       1  ZINC000501032137    0.1000
     47 H47       -11.1911   -2.6424   55.7569 H       1  ZINC000501032137    0.1100
     48 H48        -6.8413    1.7820   54.0557 H       1  ZINC000501032137    0.2500
@<TRIPOS>BOND
     1     1     2    1
     2     1    27    1
     3     1    28    1
     4     1    29    1
     5     2     3    1
     6     2    30    1
     7     2    31    1
     8     3     4    1
     9     3    32    1
    10     3    33    1
    11     4     5    1
    12     5     6    1
    13     5    34    1
    14     5    35    1
    15     6     7    1
    16     6     8    1
    17     6    16    1
    18     8     9    1
    19     8    36    1
    20     8    37    1
    21     9    15   ar
    22     9    10   ar
    23    10    11   ar
    24    10    38    1
    25    11    12   ar
    26    11    39    1
    27    12    13   ar
    28    12    40    1
    29    13    14    1
    30    13    15   ar
    31    15    41    1
    32    16    17   am
    33    16    42    1
    34    17    18    2
    35    17    19    1
    36    19    26    1
    37    19    20    2
    38    20    21    1
    39    20    24    1
    40    21    23    1
    41    21    22    1
    42    21    43    1
    43    22    23    1
    44    22    44    1
    45    22    45    1
    46    23    46    1
    47    23    47    1
    48    24    25    1
    49    25    26    2
    50    25    48    1
@<TRIPOS>SUBSTRUCTURE
     1 ZINC000501032137        1 TEMP              0 ****  ****    0 ROOT


##########                                Name:    ZINC001289445798
##########                DOCK_Rotatable_Bonds:                  10
##########                         Heavy_Atoms:                  25
##########                    Molecular_Weight:             352.434
##########                DOCK_Rotatable_Bonds:                  10
##########                       Formal_Charge:          0.00999932
##########                     HBond_Acceptors:                   8
##########                        HBond_Donors:                   2
##########                         Heavy_Atoms:                  25
##########                          Grid_Score:          -31.845131
##########                     Grid_vdw_energy:          -30.065390
##########                      Grid_es_energy:           -1.779740
##########           Internal_energy_repulsive:           23.382603

@<TRIPOS>MOLECULE
ZINC001289445798
 53 54 1 0 0
SMALL
USER_CHARGES


@<TRIPOS>ATOM
      1 C1        -13.2221   -2.4450   59.1457 C.3     1  ZINC001289445798   -0.1500
      2 C2        -12.3285   -1.5254   58.3111 C.3     1  ZINC001289445798    0.0600
      3 O3        -12.0131   -0.3540   59.0664 O.3     1  ZINC001289445798   -0.3700
      4 C4        -10.6323    0.0114   59.0227 C.3     1  ZINC001289445798    0.1100
      5 H5        -10.5141    1.0298   59.3930 H       1  ZINC001289445798    0.0700
      6 C6        -10.1292   -0.0683   57.5800 C.3     1  ZINC001289445798   -0.1400
      7 C7         -9.2826    1.1408   57.2757 C.2     1  ZINC001289445798    0.5400
      8 O8         -9.0529    1.9546   58.1451 O.2     1  ZINC001289445798   -0.5200
      9 N9         -8.7808    1.3177   56.0375 N.am    1  ZINC001289445798   -0.6200
     10 C10        -7.9373    2.4425   55.6073 C.3     1  ZINC001289445798    0.1000
     11 C11        -7.5825    2.2081   54.1239 C.3     1  ZINC001289445798    0.1400
     12 H12        -8.2636    2.7563   53.4731 H       1  ZINC001289445798    0.1200
     13 N13        -6.1935    2.5896   53.8566 N.am    1  ZINC001289445798   -0.7200
     14 C14        -5.8984    3.3515   52.7847 C.2     1  ZINC001289445798    0.6000
     15 O15        -6.7849    3.7210   52.0385 O.2     1  ZINC001289445798   -0.5100
     16 C16        -4.5033    3.7362   52.5172 C.2     1  ZINC001289445798   -0.0500
     17 C17        -3.4540    3.7369   53.4197 C.2     1  ZINC001289445798   -0.1400
     18 C18        -2.3435    4.1768   52.6957 C.2     1  ZINC001289445798    0.0000
     19 N19        -2.7316    4.4102   51.4680 N.2     1  ZINC001289445798   -0.2700
     20 N20        -3.9832    4.1585   51.3267 N.pl3   1  ZINC001289445798   -0.3800
     21 C21        -7.7771    0.6777   53.9577 C.3     1  ZINC001289445798    0.0700
     22 H22        -6.8962    0.1327   54.2968 H       1  ZINC001289445798    0.0900
     23 O23        -8.0918    0.3455   52.6038 O.3     1  ZINC001289445798   -0.3700
     24 C24        -8.2830   -1.0525   52.3779 C.3     1  ZINC001289445798    0.0300
     25 C25        -8.9813    0.4120   54.8916 C.3     1  ZINC001289445798    0.0800
     26 C26        -9.8230   -0.9469   59.8987 C.3     1  ZINC001289445798   -0.1100
     27 C27        -8.3765   -0.4569   59.9892 C.3     1  ZINC001289445798   -0.1500
     28 C28       -10.4337   -0.9953   61.3007 C.3     1  ZINC001289445798   -0.1500
     29 H29       -14.1421   -1.9208   59.4042 H       1  ZINC001289445798    0.0600
     30 H30       -13.4627   -3.3385   58.5696 H       1  ZINC001289445798    0.0700
     31 H31       -12.6983   -2.7309   60.0577 H       1  ZINC001289445798    0.0600
     32 H32       -11.4084   -2.0495   58.0526 H       1  ZINC001289445798    0.0500
     33 H33       -12.8524   -1.2395   57.3990 H       1  ZINC001289445798    0.0500
     34 H34        -9.5320   -0.9713   57.4528 H       1  ZINC001289445798    0.1100
     35 H35       -10.9802   -0.0966   56.8994 H       1  ZINC001289445798    0.1000
     36 H36        -8.4853    3.3787   55.7140 H       1  ZINC001289445798    0.0800
     37 H37        -7.0269    2.4732   56.2059 H       1  ZINC001289445798    0.0800
     38 H38        -5.4863    2.2939   54.4509 H       1  ZINC001289445798    0.4000
     39 H39        -3.4870    3.4569   54.4623 H       1  ZINC001289445798    0.1700
     40 H40        -1.3425    4.3024   53.0810 H       1  ZINC001289445798    0.1900
     41 H41        -4.4841    4.2594   50.5023 H       1  ZINC001289445798    0.4400
     42 H42        -8.5181   -1.2219   51.3271 H       1  ZINC001289445798    0.0900
     43 H43        -7.3713   -1.5906   52.6375 H       1  ZINC001289445798    0.0400
     44 H44        -9.1055   -1.4114   52.9966 H       1  ZINC001289445798    0.0500
     45 H45        -8.9839   -0.6270   55.2208 H       1  ZINC001289445798    0.0900
     46 H46        -9.9154    0.6524   54.3839 H       1  ZINC001289445798    0.0900
     47 H47        -9.8420   -1.9444   59.4596 H       1  ZINC001289445798    0.0800
     48 H48        -8.3575    0.5405   60.4284 H       1  ZINC001289445798    0.0600
     49 H49        -7.7999   -1.1397   60.6134 H       1  ZINC001289445798    0.0600
     50 H50        -7.9413   -0.4225   58.9904 H       1  ZINC001289445798    0.0600
     51 H51       -11.4293   -1.4361   61.2483 H       1  ZINC001289445798    0.0600
     52 H52        -9.8024   -1.6003   61.9514 H       1  ZINC001289445798    0.0600
     53 H53       -10.5048    0.0159   61.7012 H       1  ZINC001289445798    0.0500
@<TRIPOS>BOND
     1     1     2    1
     2     1    29    1
     3     1    30    1
     4     1    31    1
     5     2     3    1
     6     2    32    1
     7     2    33    1
     8     3     4    1
     9     4     5    1
    10     4     6    1
    11     4    26    1
    12     6     7    1
    13     6    34    1
    14     6    35    1
    15     7     8    2
    16     7     9   am
    17     9    25    1
    18     9    10    1
    19    10    11    1
    20    10    36    1
    21    10    37    1
    22    11    12    1
    23    11    13    1
    24    11    21    1
    25    13    14   am
    26    13    38    1
    27    14    15    2
    28    14    16    1
    29    16    20    1
    30    16    17    2
    31    17    18    1
    32    17    39    1
    33    18    19    2
    34    18    40    1
    35    19    20    1
    36    20    41    1
    37    21    22    1
    38    21    23    1
    39    21    25    1
    40    23    24    1
    41    24    42    1
    42    24    43    1
    43    24    44    1
    44    25    45    1
    45    25    46    1
    46    26    27    1
    47    26    28    1
    48    26    47    1
    49    27    48    1
    50    27    49    1
    51    27    50    1
    52    28    51    1
    53    28    52    1
    54    28    53    1
@<TRIPOS>SUBSTRUCTURE
     1 ZINC001289445798        1 TEMP              0 ****  ****    0 ROOT


##########                                Name:    ZINC000603906271
##########                DOCK_Rotatable_Bonds:                   8
##########                         Heavy_Atoms:                  29
##########                    Molecular_Weight:             391.473
##########                DOCK_Rotatable_Bonds:                   8
##########                       Formal_Charge:           0.0499998
##########                     HBond_Acceptors:                   7
##########                        HBond_Donors:                   3
##########                         Heavy_Atoms:                  29
##########                          Grid_Score:          -31.786263
##########                     Grid_vdw_energy:          -27.415436
##########                      Grid_es_energy:           -4.370827
##########           Internal_energy_repulsive:           19.717253

@<TRIPOS>MOLECULE
ZINC000603906271
 54 56 1 0 0
SMALL
USER_CHARGES


@<TRIPOS>ATOM
      1 C1         -2.1779    5.6985   52.5057 C.3     1  ZINC000603906271   -0.1600
      2 C2         -2.6691    4.3711   53.0868 C.3     1  ZINC000603906271    0.1300
      3 H3         -2.1639    3.5457   52.5852 H       1  ZINC000603906271    0.1200
      4 N4         -2.3722    4.3262   54.5208 N.am    1  ZINC000603906271   -0.7100
      5 C5         -1.2043    3.8094   54.9513 C.2     1  ZINC000603906271    0.5700
      6 O6         -0.3980    3.3791   54.1500 O.2     1  ZINC000603906271   -0.5300
      7 C7         -0.9040    3.7656   56.3983 C.ar    1  ZINC000603906271   -0.1400
      8 C8         -1.9391    3.8410   57.3315 C.ar    1  ZINC000603906271   -0.0800
      9 C9         -1.6522    3.7991   58.6802 C.ar    1  ZINC000603906271   -0.1200
     10 C10        -0.3416    3.6832   59.1085 C.ar    1  ZINC000603906271   -0.0400
     11 C11        -0.0355    3.6387   60.5834 C.3     1  ZINC000603906271   -0.0400
     12 C12        -0.5143    4.9335   61.2429 C.3     1  ZINC000603906271   -0.1400
     13 C13        -0.7553    2.4469   61.2178 C.3     1  ZINC000603906271   -0.1500
     14 C14         1.4736    3.4904   60.7869 C.3     1  ZINC000603906271   -0.1400
     15 C15         0.6892    3.6077   58.1886 C.ar    1  ZINC000603906271   -0.1300
     16 C16         0.4153    3.6430   56.8369 C.ar    1  ZINC000603906271   -0.0500
     17 C17        -4.1567    4.2510   52.8777 C.2     1  ZINC000603906271    0.5100
     18 O18        -4.8231    5.2446   52.6777 O.2     1  ZINC000603906271   -0.5100
     19 N19        -4.7466    3.0398   52.9130 N.am    1  ZINC000603906271   -0.6700
     20 C20        -6.1279    2.9284   52.7189 C.ar    1  ZINC000603906271    0.1300
     21 C21        -6.9244    2.3590   53.7046 C.ar    1  ZINC000603906271   -0.1200
     22 C22        -8.2892    2.2473   53.5163 C.ar    1  ZINC000603906271   -0.1000
     23 C23        -8.8682    2.7002   52.3480 C.ar    1  ZINC000603906271   -0.0900
     24 C24        -8.0767    3.2723   51.3535 C.ar    1  ZINC000603906271    0.0000
     25 C25        -8.6977    3.7593   50.0966 C.2     1  ZINC000603906271    0.2700
     26 N26        -9.9688    4.0541   49.9338 N.2     1  ZINC000603906271   -0.3000
     27 N27       -10.1191    4.4714   48.6014 N.pl3   1  ZINC000603906271   -0.4800
     28 C28        -8.8999    4.3982   48.0378 C.2     1  ZINC000603906271    0.2700
     29 N29        -8.0550    3.9767   48.9413 N.2     1  ZINC000603906271   -0.5300
     30 C30        -6.7031    3.3914   51.5449 C.ar    1  ZINC000603906271   -0.0800
     31 H31        -2.6831    6.5239   53.0073 H       1  ZINC000603906271    0.0700
     32 H32        -1.1019    5.7853   52.6569 H       1  ZINC000603906271    0.0800
     33 H33        -2.3988    5.7319   51.4388 H       1  ZINC000603906271    0.0700
     34 H34        -3.0163    4.6684   55.1603 H       1  ZINC000603906271    0.4100
     35 H35        -2.9625    3.9321   56.9986 H       1  ZINC000603906271    0.1300
     36 H36        -2.4522    3.8573   59.4035 H       1  ZINC000603906271    0.1300
     37 H37        -1.5894    5.0392   61.0980 H       1  ZINC000603906271    0.0600
     38 H38        -0.2929    4.9013   62.3098 H       1  ZINC000603906271    0.0600
     39 H39        -0.0015    5.7826   60.7910 H       1  ZINC000603906271    0.0600
     40 H40        -0.4142    1.5244   60.7480 H       1  ZINC000603906271    0.0600
     41 H41        -0.5339    2.4146   62.2846 H       1  ZINC000603906271    0.0600
     42 H42        -1.8304    2.5525   61.0728 H       1  ZINC000603906271    0.0600
     43 H43         1.9863    4.3395   60.3349 H       1  ZINC000603906271    0.0600
     44 H44         1.6949    3.4581   61.8536 H       1  ZINC000603906271    0.0600
     45 H45         1.8147    2.5679   60.3170 H       1  ZINC000603906271    0.0600
     46 H46         1.7099    3.5170   58.5294 H       1  ZINC000603906271    0.1400
     47 H47         1.2208    3.5835   56.1198 H       1  ZINC000603906271    0.1400
     48 H48        -4.2136    2.2453   53.0730 H       1  ZINC000603906271    0.4200
     49 H49        -6.4760    2.0026   54.6201 H       1  ZINC000603906271    0.1300
     50 H50        -8.9042    1.8040   54.2855 H       1  ZINC000603906271    0.1400
     51 H51        -9.9349    2.6109   52.2042 H       1  ZINC000603906271    0.1400
     52 H52       -10.9409    4.7562   48.1718 H       1  ZINC000603906271    0.4400
     53 H53        -8.6595    4.6492   47.0152 H       1  ZINC000603906271    0.2300
     54 H54        -6.0857    3.8340   50.7773 H       1  ZINC000603906271    0.1500
@<TRIPOS>BOND
     1     1     2    1
     2     1    31    1
     3     1    32    1
     4     1    33    1
     5     2     3    1
     6     2     4    1
     7     2    17    1
     8     4     5   am
     9     4    34    1
    10     5     6    2
    11     5     7    1
    12     7    16   ar
    13     7     8   ar
    14     8     9   ar
    15     8    35    1
    16     9    10   ar
    17     9    36    1
    18    10    11    1
    19    10    15   ar
    20    11    12    1
    21    11    13    1
    22    11    14    1
    23    12    37    1
    24    12    38    1
    25    12    39    1
    26    13    40    1
    27    13    41    1
    28    13    42    1
    29    14    43    1
    30    14    44    1
    31    14    45    1
    32    15    16   ar
    33    15    46    1
    34    16    47    1
    35    17    18    2
    36    17    19   am
    37    19    20    1
    38    19    48    1
    39    20    30   ar
    40    20    21   ar
    41    21    22   ar
    42    21    49    1
    43    22    23   ar
    44    22    50    1
    45    23    24   ar
    46    23    51    1
    47    24    25    1
    48    24    30   ar
    49    25    29    1
    50    25    26    2
    51    26    27    1
    52    27    28    1
    53    27    52    1
    54    28    29    2
    55    28    53    1
    56    30    54    1
@<TRIPOS>SUBSTRUCTURE
     1 ZINC000603906271        1 TEMP              0 ****  ****    0 ROOT


##########                                Name:    ZINC000599797189
##########                DOCK_Rotatable_Bonds:                  13
##########                         Heavy_Atoms:                  23
##########                    Molecular_Weight:             329.313
##########                DOCK_Rotatable_Bonds:                  13
##########                       Formal_Charge:          0.00999949
##########                     HBond_Acceptors:                  11
##########                        HBond_Donors:                   3
##########                         Heavy_Atoms:                  23
##########                          Grid_Score:          -31.765158
##########                     Grid_vdw_energy:          -29.784451
##########                      Grid_es_energy:           -1.980708
##########           Internal_energy_repulsive:            7.092777

@<TRIPOS>MOLECULE
ZINC000599797189
 42 42 1 0 0
SMALL
USER_CHARGES


@<TRIPOS>ATOM
      1 C1         -6.8465    3.5606   50.4784 C.3     1  ZINC000599797189   -0.1500
      2 C2         -7.9625    3.5953   51.5246 C.3     1  ZINC000599797189    0.0600
      3 O3         -8.0350    2.3108   52.1977 O.3     1  ZINC000599797189   -0.3600
      4 C4         -7.1417    2.0827   53.1731 C.2     1  ZINC000599797189    0.4500
      5 O5         -6.3980    2.9656   53.5299 O.2     1  ZINC000599797189   -0.4800
      6 C6         -7.0661    0.7252   53.8233 C.3     1  ZINC000599797189    0.1500
      7 N7         -8.0100    0.6664   54.9421 N.pl3   1  ZINC000599797189   -0.3800
      8 C8         -9.2107    0.0633   54.9504 C.2     1  ZINC000599797189    0.2800
      9 N9         -9.7455    0.2337   56.1326 N.2     1  ZINC000599797189   -0.5100
     10 C10        -8.9163    0.9405   56.9064 C.2     1  ZINC000599797189    0.4700
     11 N11        -9.1588    1.3124   58.2329 N.am    1  ZINC000599797189   -0.6400
     12 C12        -8.8230    0.4799   59.2383 C.2     1  ZINC000599797189    0.7100
     13 O13        -8.3108   -0.5949   58.9922 O.2     1  ZINC000599797189   -0.5300
     14 N14        -9.0552    0.8390   60.5164 N.am    1  ZINC000599797189   -0.7300
     15 C15        -8.6886   -0.0651   61.6094 C.3     1  ZINC000599797189    0.1100
     16 C16        -8.8022    0.6752   62.9435 C.3     1  ZINC000599797189    0.1100
     17 H17        -8.2462    1.6111   62.8883 H       1  ZINC000599797189    0.1200
     18 O18       -10.1767    0.9532   63.2183 O.3     1  ZINC000599797189   -0.5400
     19 C19        -8.2248   -0.1959   64.0610 C.3     1  ZINC000599797189   -0.1500
     20 C20        -8.3284    0.5370   65.3736 C.2     1  ZINC000599797189    0.4600
     21 O21        -8.4359   -0.0833   66.4050 O.2     1  ZINC000599797189   -0.4900
     22 O22        -8.3012    1.8787   65.3971 O.3     1  ZINC000599797189   -0.3600
     23 C23        -8.4069    2.5175   66.6968 C.3     1  ZINC000599797189    0.0400
     24 N24        -7.8356    1.2239   56.2192 N.2     1  ZINC000599797189   -0.3200
     25 H25        -6.7921    4.5249   49.9731 H       1  ZINC000599797189    0.0800
     26 H26        -5.8954    3.3530   50.9686 H       1  ZINC000599797189    0.0700
     27 H27        -7.0571    2.7792   49.7483 H       1  ZINC000599797189    0.0700
     28 H28        -7.7519    4.3768   52.2547 H       1  ZINC000599797189    0.0700
     29 H29        -8.9137    3.8029   51.0344 H       1  ZINC000599797189    0.0700
     30 H30        -7.3206   -0.0423   53.0924 H       1  ZINC000599797189    0.1500
     31 H31        -6.0546    0.5547   54.1919 H       1  ZINC000599797189    0.1300
     32 H32        -9.6574   -0.4697   54.1242 H       1  ZINC000599797189    0.2300
     33 H33        -9.5685    2.1694   58.4292 H       1  ZINC000599797189    0.4200
     34 H34        -9.4649    1.6961   60.7127 H       1  ZINC000599797189    0.4000
     35 H35        -9.3604   -0.9234   61.6117 H       1  ZINC000599797189    0.0800
     36 H36        -7.6630   -0.4068   61.4697 H       1  ZINC000599797189    0.0800
     37 H37       -10.5771    1.5931   62.6138 H       1  ZINC000599797189    0.3800
     38 H38        -8.7851   -1.1290   64.1206 H       1  ZINC000599797189    0.1200
     39 H39        -7.1782   -0.4135   63.8480 H       1  ZINC000599797189    0.1200
     40 H40        -9.3501    2.2355   67.1647 H       1  ZINC000599797189    0.0600
     41 H41        -7.5780    2.1966   67.3279 H       1  ZINC000599797189    0.0600
     42 H42        -8.3718    3.6000   66.5735 H       1  ZINC000599797189    0.1000
@<TRIPOS>BOND
     1     1     2    1
     2     1    25    1
     3     1    26    1
     4     1    27    1
     5     2     3    1
     6     2    28    1
     7     2    29    1
     8     3     4    1
     9     4     5    2
    10     4     6    1
    11     6     7    1
    12     6    30    1
    13     6    31    1
    14     7    24    1
    15     7     8    1
    16     8     9    2
    17     8    32    1
    18     9    10    1
    19    10    11    1
    20    10    24    2
    21    11    12   am
    22    11    33    1
    23    12    13    2
    24    12    14   am
    25    14    15    1
    26    14    34    1
    27    15    16    1
    28    15    35    1
    29    15    36    1
    30    16    17    1
    31    16    18    1
    32    16    19    1
    33    18    37    1
    34    19    20    1
    35    19    38    1
    36    19    39    1
    37    20    21    2
    38    20    22    1
    39    22    23    1
    40    23    40    1
    41    23    41    1
    42    23    42    1
@<TRIPOS>SUBSTRUCTURE
     1 ZINC000599797189        1 TEMP              0 ****  ****    0 ROOT


##########                                Name:    ZINC000020646552
##########                DOCK_Rotatable_Bonds:                   5
##########                         Heavy_Atoms:                  29
##########                    Molecular_Weight:             412.556
##########                DOCK_Rotatable_Bonds:                   5
##########                       Formal_Charge:          -0.0200012
##########                     HBond_Acceptors:                   7
##########                        HBond_Donors:                   0
##########                         Heavy_Atoms:                  29
##########                          Grid_Score:          -31.715733
##########                     Grid_vdw_energy:          -31.771606
##########                      Grid_es_energy:            0.055873
##########           Internal_energy_repulsive:           19.537317

@<TRIPOS>MOLECULE
ZINC000020646552
 57 60 1 0 0
SMALL
USER_CHARGES


@<TRIPOS>ATOM
      1 C1         -9.0554    0.3431   66.2654 C.3     1  ZINC000020646552    0.0200
      2 N2         -8.8718    0.8218   64.8887 N.3     1  ZINC000020646552   -0.5400
      3 C3         -9.4089    2.1795   64.7274 C.3     1  ZINC000020646552    0.0400
      4 C4         -9.0388    2.7100   63.3382 C.3     1  ZINC000020646552    0.1200
      5 N5         -9.4916    1.7384   62.3312 N.am    1  ZINC000020646552   -0.6100
      6 C6        -10.2393    2.1291   61.2800 C.2     1  ZINC000020646552    0.5300
      7 O7        -10.5460    3.2957   61.1544 O.2     1  ZINC000020646552   -0.5200
      8 C8        -10.6939    1.1163   60.2609 C.3     1  ZINC000020646552   -0.1500
      9 S9         -9.4458    0.9692   58.9583 S.3     1  ZINC000020646552    0.0500
     10 C10       -10.2768   -0.1309   57.8612 C.ar    1  ZINC000020646552    0.1500
     11 N11       -11.2895   -0.8755   58.2917 N.ar    1  ZINC000020646552   -0.5200
     12 C12       -11.9149   -1.7036   57.4666 C.ar    1  ZINC000020646552    0.3800
     13 C13       -13.0436   -2.5187   57.9783 C.ar    1  ZINC000020646552   -0.0500
     14 C14       -13.5827   -2.2554   59.2362 C.ar    1  ZINC000020646552   -0.0700
     15 C15       -14.6331   -3.0167   59.7070 C.ar    1  ZINC000020646552   -0.1300
     16 C16       -15.1508   -4.0396   58.9328 C.ar    1  ZINC000020646552   -0.1000
     17 C17       -14.6193   -4.3058   57.6838 C.ar    1  ZINC000020646552   -0.1300
     18 C18       -13.5726   -3.5472   57.2004 C.ar    1  ZINC000020646552   -0.0700
     19 N19       -11.5572   -1.8209   56.1962 N.ar    1  ZINC000020646552   -0.5200
     20 C20       -10.5538   -1.1076   55.7007 C.ar    1  ZINC000020646552    0.2100
     21 C21        -9.8838   -0.2296   56.5214 C.ar    1  ZINC000020646552   -0.2100
     22 C22        -8.7467    0.6156   56.0175 C.3     1  ZINC000020646552    0.1100
     23 O23        -8.2699    0.1071   54.7710 O.3     1  ZINC000020646552   -0.3600
     24 C24        -9.3104   -0.0919   53.8075 C.3     1  ZINC000020646552    0.1100
     25 C25       -10.1770    1.1661   53.7201 C.3     1  ZINC000020646552   -0.1800
     26 C26        -8.6936   -0.3869   52.4388 C.3     1  ZINC000020646552   -0.1400
     27 C27       -10.1728   -1.2729   54.2531 C.3     1  ZINC000020646552   -0.0900
     28 C28        -9.1064    0.3291   62.5014 C.3     1  ZINC000020646552    0.1100
     29 C29        -9.4739   -0.1076   63.9235 C.3     1  ZINC000020646552    0.0400
     30 H30        -8.5819   -0.6322   66.3771 H       1  ZINC000020646552    0.0700
     31 H31        -8.6003    1.0497   66.9595 H       1  ZINC000020646552    0.0700
     32 H32       -10.1204    0.2567   66.4810 H       1  ZINC000020646552    0.0300
     33 H33       -10.4938    2.1562   64.8306 H       1  ZINC000020646552    0.0400
     34 H34        -8.9845    2.8317   65.4908 H       1  ZINC000020646552    0.0900
     35 H35        -9.5300    3.6682   63.1693 H       1  ZINC000020646552    0.1000
     36 H36        -7.9579    2.8323   63.2690 H       1  ZINC000020646552    0.0800
     37 H37       -10.8296    0.1493   60.7450 H       1  ZINC000020646552    0.1300
     38 H38       -11.6387    1.4396   59.8239 H       1  ZINC000020646552    0.1200
     39 H39       -13.1791   -1.4572   59.8415 H       1  ZINC000020646552    0.1400
     40 H40       -15.0515   -2.8138   60.6818 H       1  ZINC000020646552    0.1300
     41 H41       -15.9728   -4.6328   59.3052 H       1  ZINC000020646552    0.1300
     42 H42       -15.0272   -5.1058   57.0838 H       1  ZINC000020646552    0.1300
     43 H43       -13.1584   -3.7558   56.2251 H       1  ZINC000020646552    0.1300
     44 H44        -9.0913    1.6407   55.8814 H       1  ZINC000020646552    0.0800
     45 H45        -7.9365    0.6029   56.7465 H       1  ZINC000020646552    0.1100
     46 H46        -9.5599    2.0119   53.4171 H       1  ZINC000020646552    0.0700
     47 H47       -10.9681    1.0121   52.9862 H       1  ZINC000020646552    0.0700
     48 H48       -10.6203    1.3704   54.6948 H       1  ZINC000020646552    0.0600
     49 H49        -8.0820   -1.2869   52.5023 H       1  ZINC000020646552    0.0700
     50 H50        -9.4875   -0.5379   51.7075 H       1  ZINC000020646552    0.0800
     51 H51        -8.0717    0.4541   52.1317 H       1  ZINC000020646552    0.0700
     52 H52        -9.6090   -2.1983   54.1358 H       1  ZINC000020646552    0.1000
     53 H53       -11.0726   -1.3169   53.6393 H       1  ZINC000020646552    0.1000
     54 H54        -9.6425   -0.2867   61.7792 H       1  ZINC000020646552    0.0900
     55 H55        -8.0321    0.2225   62.3517 H       1  ZINC000020646552    0.0800
     56 H56        -9.0966   -1.1142   64.1038 H       1  ZINC000020646552    0.0900
     57 H57       -10.5579   -0.0991   64.0379 H       1  ZINC000020646552    0.0400
@<TRIPOS>BOND
     1     1     2    1
     2     1    30    1
     3     1    31    1
     4     1    32    1
     5     2    29    1
     6     2     3    1
     7     3     4    1
     8     3    33    1
     9     3    34    1
    10     4     5    1
    11     4    35    1
    12     4    36    1
    13     5     6   am
    14     5    28    1
    15     6     7    2
    16     6     8    1
    17     8     9    1
    18     8    37    1
    19     8    38    1
    20     9    10    1
    21    10    21   ar
    22    10    11   ar
    23    11    12   ar
    24    12    13    1
    25    12    19   ar
    26    13    18   ar
    27    13    14   ar
    28    14    15   ar
    29    14    39    1
    30    15    16   ar
    31    15    40    1
    32    16    17   ar
    33    16    41    1
    34    17    18   ar
    35    17    42    1
    36    18    43    1
    37    19    20   ar
    38    20    27    1
    39    20    21   ar
    40    21    22    1
    41    22    23    1
    42    22    44    1
    43    22    45    1
    44    23    24    1
    45    24    25    1
    46    24    26    1
    47    24    27    1
    48    25    46    1
    49    25    47    1
    50    25    48    1
    51    26    49    1
    52    26    50    1
    53    26    51    1
    54    27    52    1
    55    27    53    1
    56    28    29    1
    57    28    54    1
    58    28    55    1
    59    29    56    1
    60    29    57    1
@<TRIPOS>SUBSTRUCTURE
     1 ZINC000020646552        1 TEMP              0 ****  ****    0 ROOT


##########                                Name:    ZINC001369071670
##########                DOCK_Rotatable_Bonds:                   8
##########                         Heavy_Atoms:                  24
##########                    Molecular_Weight:             335.366
##########                DOCK_Rotatable_Bonds:                   8
##########                       Formal_Charge:        -2.90573e-07
##########                     HBond_Acceptors:                  10
##########                        HBond_Donors:                   1
##########                         Heavy_Atoms:                  24
##########                          Grid_Score:          -31.713041
##########                     Grid_vdw_energy:          -27.455767
##########                      Grid_es_energy:           -4.257275
##########           Internal_energy_repulsive:            9.218741

@<TRIPOS>MOLECULE
ZINC001369071670
 45 47 1 0 0
SMALL
USER_CHARGES


@<TRIPOS>ATOM
      1 C1        -15.6379   -2.0810   55.8395 C.3     1  ZINC001369071670   -0.0800
      2 C2        -15.6689   -1.7495   57.3093 C.2     1  ZINC001369071670    0.0000
      3 C3        -15.0606   -2.4334   58.3054 C.2     1  ZINC001369071670   -0.2300
      4 C4        -15.4038   -1.7095   59.4770 C.2     1  ZINC001369071670    0.2100
      5 O5        -15.0322   -1.9970   60.7501 O.3     1  ZINC001369071670   -0.2600
      6 C6        -14.0007   -2.9711   60.9205 C.3     1  ZINC001369071670    0.0400
      7 C7        -12.6717   -2.3662   60.5477 C.2     1  ZINC001369071670    0.5200
      8 O8        -11.8232   -3.0487   60.0136 O.2     1  ZINC001369071670   -0.5100
      9 N9        -12.4262   -1.0667   60.8075 N.am    1  ZINC001369071670   -0.7200
     10 C10       -11.1349   -0.4782   60.4434 C.3     1  ZINC001369071670    0.1500
     11 H11       -10.3498   -1.2256   60.5575 H       1  ZINC001369071670    0.0900
     12 C12       -11.1817   -0.0056   58.9890 C.3     1  ZINC001369071670   -0.1700
     13 C13       -10.8415    0.7131   61.3576 C.3     1  ZINC001369071670   -0.1200
     14 C14       -10.6049    0.3226   62.8276 C.3     1  ZINC001369071670    0.0100
     15 N15        -9.4996    1.3061   62.8078 N.3     1  ZINC001369071670   -0.4800
     16 C16        -8.3145    0.7802   63.4984 C.3     1  ZINC001369071670    0.1000
     17 C17        -8.6482    0.5259   64.9459 C.2     1  ZINC001369071670    0.1900
     18 N18        -8.7255   -0.6409   65.5378 N.2     1  ZINC001369071670   -0.3000
     19 N19        -9.0330   -0.4410   66.7729 N.2     1  ZINC001369071670   -0.0700
     20 N20        -9.1539    0.8231   66.9842 N.2     1  ZINC001369071670   -0.0900
     21 N21        -8.9191    1.4532   65.8830 N.pl3   1  ZINC001369071670   -0.3000
     22 C22        -8.9507    2.9047   65.6873 C.3     1  ZINC001369071670    0.0800
     23 C23        -9.3680    1.1582   61.3415 C.3     1  ZINC001369071670    0.0200
     24 N24       -16.1486   -0.7109   59.0844 N.2     1  ZINC001369071670   -0.4100
     25 O25       -16.3001   -0.7159   57.8847 O.3     1  ZINC001369071670    0.1000
     26 H26       -16.2184   -1.3415   55.2880 H       1  ZINC001369071670    0.0900
     27 H27       -14.6067   -2.0704   55.4863 H       1  ZINC001369071670    0.1000
     28 H28       -16.0661   -3.0708   55.6811 H       1  ZINC001369071670    0.1000
     29 H29       -14.4543   -3.3237   58.2273 H       1  ZINC001369071670    0.1800
     30 H30       -13.9738   -3.2935   61.9615 H       1  ZINC001369071670    0.1000
     31 H31       -14.2018   -3.8294   60.2794 H       1  ZINC001369071670    0.1000
     32 H32       -13.1044   -0.5211   61.2356 H       1  ZINC001369071670    0.4000
     33 H33       -11.3908   -0.8544   58.3378 H       1  ZINC001369071670    0.0600
     34 H34       -11.9668    0.7419   58.8749 H       1  ZINC001369071670    0.0600
     35 H35       -10.2210    0.4323   58.7181 H       1  ZINC001369071670    0.0700
     36 H36       -11.5487    1.5323   61.2280 H       1  ZINC001369071670    0.1100
     37 H37       -11.4244    0.5963   63.4921 H       1  ZINC001369071670    0.1000
     38 H38       -10.2738   -0.7074   62.9606 H       1  ZINC001369071670    0.0800
     39 H39        -8.0040   -0.1527   63.0279 H       1  ZINC001369071670    0.1000
     40 H40        -7.5044    1.5067   63.4345 H       1  ZINC001369071670    0.0900
     41 H41        -7.9617    3.3194   65.8831 H       1  ZINC001369071670    0.1000
     42 H42        -9.2409    3.1267   64.6604 H       1  ZINC001369071670    0.1000
     43 H43        -9.6728    3.3482   66.3730 H       1  ZINC001369071670    0.1100
     44 H44        -8.6752    0.3727   61.0398 H       1  ZINC001369071670    0.0800
     45 H45        -9.1993    2.0996   60.8186 H       1  ZINC001369071670    0.1000
@<TRIPOS>BOND
     1     1     2    1
     2     1    26    1
     3     1    27    1
     4     1    28    1
     5     2    25    1
     6     2     3    2
     7     3     4    1
     8     3    29    1
     9     4     5    1
    10     4    24    2
    11     5     6    1
    12     6     7    1
    13     6    30    1
    14     6    31    1
    15     7     8    2
    16     7     9   am
    17     9    10    1
    18     9    32    1
    19    10    11    1
    20    10    12    1
    21    10    13    1
    22    12    33    1
    23    12    34    1
    24    12    35    1
    25    13    23    1
    26    13    14    1
    27    13    36    1
    28    14    15    1
    29    14    37    1
    30    14    38    1
    31    15    16    1
    32    15    23    1
    33    16    17    1
    34    16    39    1
    35    16    40    1
    36    17    21    1
    37    17    18    2
    38    18    19    1
    39    19    20    2
    40    20    21    1
    41    21    22    1
    42    22    41    1
    43    22    42    1
    44    22    43    1
    45    23    44    1
    46    23    45    1
    47    24    25    1
@<TRIPOS>SUBSTRUCTURE
     1 ZINC001369071670        1 TEMP              0 ****  ****    0 ROOT


##########                                Name:    ZINC000011972961
##########                DOCK_Rotatable_Bonds:                   6
##########                         Heavy_Atoms:                  28
##########                    Molecular_Weight:             397.501
##########                DOCK_Rotatable_Bonds:                   6
##########                       Formal_Charge:                   0
##########                     HBond_Acceptors:                   8
##########                        HBond_Donors:                   1
##########                         Heavy_Atoms:                  28
##########                          Grid_Score:          -31.694050
##########                     Grid_vdw_energy:          -31.694050
##########                      Grid_es_energy:            0.000000
##########           Internal_energy_repulsive:           25.498732

@<TRIPOS>MOLECULE
ZINC000011972961
 51 54 1 0 0
SMALL
USER_CHARGES


@<TRIPOS>ATOM
      1 C1         -8.3361    2.0802   56.5758 C.3               0.0000
      2 C2         -9.0469    0.8179   56.1608 C.2               0.0000
      3 C3         -9.9498    0.2156   56.9450 C.2               0.0000
      4 C4        -10.3532    0.6931   58.2733 C.2               0.0000
      5 O5        -11.2510    1.5074   58.3804 O.2               0.0000
      6 N6         -9.7290    0.2297   59.3742 N.am              0.0000
      7 C7         -8.6480   -0.7508   59.2453 C.3               0.0000
      8 C8        -10.1314    0.7061   60.6998 C.3               0.0000
      9 H9        -11.1510    1.0906   60.6727 H                 0.0000
     10 C10       -10.0084   -0.4299   61.7444 C.3               0.0000
     11 C11        -8.6328   -0.1279   62.3918 C.3               0.0000
     12 O12        -8.5907    1.3146   62.4358 O.3               0.0000
     13 C13        -9.1590    1.7913   61.2011 C.3               0.0000
     14 S14       -10.5852   -1.2232   56.1657 S.3               0.0000
     15 C15        -9.5761   -0.9617   54.7494 C.ar              0.0000
     16 N16        -9.4496   -1.6583   53.6143 N.ar              0.0000
     17 C17        -8.6199   -1.2735   52.6716 C.ar              0.0000
     18 N18        -7.8733   -0.1907   52.7902 N.ar              0.0000
     19 C19        -7.9262    0.5660   53.8758 C.ar              0.0000
     20 N20        -7.1387    1.6944   53.9828 N.pl3             0.0000
     21 C21        -7.4246    2.8684   53.1545 C.3               0.0000
     22 C22        -6.1304    3.5312   52.7588 C.ar              0.0000
     23 N23        -5.0637    3.3843   53.5199 N.ar              0.0000
     24 C24        -3.9102    3.9453   53.2129 C.ar              0.0000
     25 C25        -2.7211    3.7458   54.1171 C.3               0.0000
     26 C26        -3.7792    4.7134   52.0718 C.ar              0.0000
     27 C27        -4.8795    4.8907   51.2466 C.ar              0.0000
     28 C28        -6.0738    4.2816   51.5994 C.ar              0.0000
     29 C29        -8.8122    0.2000   54.9281 C.ar              0.0000
     30 H30        -8.6744    2.9090   55.9538 H                 0.0000
     31 H31        -8.5586    2.2958   57.6209 H                 0.0000
     32 H32        -7.2610    1.9491   56.4529 H                 0.0000
     33 H33        -7.8029   -0.2942   58.7302 H                 0.0000
     34 H34        -8.3352   -1.0790   60.2365 H                 0.0000
     35 H35        -9.0017   -1.6086   58.6732 H                 0.0000
     36 H36       -10.8079   -0.3677   62.4826 H                 0.0000
     37 H37       -10.0039   -1.4059   61.2589 H                 0.0000
     38 H38        -8.5826   -0.5441   63.3980 H                 0.0000
     39 H39        -7.8239   -0.5168   61.7735 H                 0.0000
     40 H40        -8.3695    1.9492   60.4663 H                 0.0000
     41 H41        -9.6969    2.7231   61.3759 H                 0.0000
     42 H42        -8.5454   -1.8626   51.7696 H                 0.0000
     43 H43        -6.3960    1.7100   54.6065 H                 0.0000
     44 H44        -7.9630    2.5588   52.2587 H                 0.0000
     45 H45        -8.0351    3.5723   53.7203 H                 0.0000
     46 H46        -2.1692    2.8605   53.8015 H                 0.0000
     47 H47        -2.0709    4.6188   54.0601 H                 0.0000
     48 H48        -3.0633    3.6139   55.1435 H                 0.0000
     49 H49        -2.8320    5.1702   51.8259 H                 0.0000
     50 H50        -4.8067    5.4859   50.3483 H                 0.0000
     51 H51        -6.9507    4.3979   50.9799 H                 0.0000
@<TRIPOS>BOND
     1     1     2    1
     2     1    30    1
     3     1    31    1
     4     1    32    1
     5     2    29    1
     6     2     3    2
     7     3     4    1
     8     3    14    1
     9     4     5    2
    10     4     6   am
    11     6     7    1
    12     6     8    1
    13     7    33    1
    14     7    34    1
    15     7    35    1
    16     8     9    1
    17     8    13    1
    18     8    10    1
    19    10    11    1
    20    10    36    1
    21    10    37    1
    22    11    12    1
    23    11    38    1
    24    11    39    1
    25    12    13    1
    26    13    40    1
    27    13    41    1
    28    14    15    1
    29    15    29   ar
    30    15    16   ar
    31    16    17   ar
    32    17    18   ar
    33    17    42    1
    34    18    19   ar
    35    19    20    1
    36    19    29   ar
    37    20    21    1
    38    20    43    1
    39    21    22    1
    40    21    44    1
    41    21    45    1
    42    22    28   ar
    43    22    23   ar
    44    23    24   ar
    45    24    25    1
    46    24    26   ar
    47    25    46    1
    48    25    47    1
    49    25    48    1
    50    26    27   ar
    51    26    49    1
    52    27    28   ar
    53    27    50    1
    54    28    51    1
@<TRIPOS>SUBSTRUCTURE
     1          1 TEMP              0 ****  ****    0 ROOT


##########                                Name:    ZINC000433533595
##########                DOCK_Rotatable_Bonds:                  10
##########                         Heavy_Atoms:                  24
##########                    Molecular_Weight:             397.312
##########                DOCK_Rotatable_Bonds:                  10
##########                       Formal_Charge:          0.00999916
##########                     HBond_Acceptors:                   5
##########                        HBond_Donors:                   1
##########                         Heavy_Atoms:                  24
##########                          Grid_Score:          -31.692516
##########                     Grid_vdw_energy:          -31.701786
##########                      Grid_es_energy:            0.009269
##########           Internal_energy_repulsive:           16.606773

@<TRIPOS>MOLECULE
ZINC000433533595
 49 50 1 0 0
SMALL
USER_CHARGES


@<TRIPOS>ATOM
      1 C1         -5.9510    2.8677   52.8164 C.3     1  ZINC000433533595   -0.1500
      2 C2         -7.3895    2.7810   53.3301 C.3     1  ZINC000433533595   -0.1200
      3 C3         -8.0627    1.5338   52.7536 C.3     1  ZINC000433533595   -0.1300
      4 C4         -7.6503    0.3078   53.5706 C.3     1  ZINC000433533595    0.1000
      5 N5         -8.7945   -0.1638   54.3548 N.am    1  ZINC000433533595   -0.5500
      6 C6         -8.9921    0.3002   55.6046 C.2     1  ZINC000433533595    0.5100
      7 O7         -8.2222    1.1087   56.0804 O.2     1  ZINC000433533595   -0.5100
      8 C8        -10.1583   -0.1806   56.4039 C.2     1  ZINC000433533595    0.5000
      9 O9        -11.1667    0.4920   56.4711 O.2     1  ZINC000433533595   -0.4900
     10 N10       -10.0913   -1.3610   57.0507 N.am    1  ZINC000433533595   -0.6300
     11 C11       -11.1836   -1.8114   57.7994 C.ar    1  ZINC000433533595    0.1200
     12 C12       -12.3579   -2.1845   57.1613 C.ar    1  ZINC000433533595   -0.0600
     13 C13       -13.4363   -2.6293   57.9039 C.ar    1  ZINC000433533595   -0.1100
     14 Br14      -15.0358   -3.1380   57.0329 Br      1  ZINC000433533595   -0.0400
     15 C15       -13.3474   -2.7035   59.2825 C.ar    1  ZINC000433533595   -0.0600
     16 C16       -12.1802   -2.3333   59.9249 C.ar    1  ZINC000433533595   -0.1900
     17 C17       -11.0936   -1.8921   59.1881 C.ar    1  ZINC000433533595    0.1300
     18 O18        -9.9453   -1.5278   59.8190 O.3     1  ZINC000433533595   -0.3100
     19 C19        -9.9769   -0.3157   60.5751 C.3     1  ZINC000433533595    0.0800
     20 C20       -10.0775   -0.6468   62.0654 C.3     1  ZINC000433533595   -0.1500
     21 C21        -8.6969    0.4811   60.3150 C.3     1  ZINC000433533595   -0.1800
     22 C22        -9.7238   -1.1398   53.7802 C.3     1  ZINC000433533595    0.0600
     23 C23       -11.0427   -0.6107   53.2134 C.3     1  ZINC000433533595   -0.1900
     24 C24        -9.9445   -1.0991   52.2667 C.3     1  ZINC000433533595   -0.1800
     25 H25        -5.9568    2.9282   51.7281 H       1  ZINC000433533595    0.0500
     26 H26        -5.4715    3.7562   53.2272 H       1  ZINC000433533595    0.0500
     27 H27        -5.3999    1.9804   53.1281 H       1  ZINC000433533595    0.0500
     28 H28        -7.3838    2.7205   54.4184 H       1  ZINC000433533595    0.0700
     29 H29        -7.9408    3.6683   53.0184 H       1  ZINC000433533595    0.0600
     30 H30        -9.1454    1.6523   52.7973 H       1  ZINC000433533595    0.0600
     31 H31        -7.7535    1.4004   51.7170 H       1  ZINC000433533595    0.0700
     32 H32        -7.3204   -0.4833   52.8973 H       1  ZINC000433533595    0.1100
     33 H33        -6.8353    0.5764   54.2426 H       1  ZINC000433533595    0.0800
     34 H34        -9.2855   -1.8983   56.9971 H       1  ZINC000433533595    0.4300
     35 H35       -12.4298   -2.1271   56.0853 H       1  ZINC000433533595    0.1600
     36 H36       -14.1923   -3.0512   59.8585 H       1  ZINC000433533595    0.1400
     37 H37       -12.1145   -2.3925   61.0013 H       1  ZINC000433533595    0.1500
     38 H38       -10.8410    0.2771   60.2753 H       1  ZINC000433533595    0.0800
     39 H39        -9.2134   -1.2396   62.3651 H       1  ZINC000433533595    0.0700
     40 H40       -10.1017    0.2778   62.6422 H       1  ZINC000433533595    0.0800
     41 H41       -10.9895   -1.2144   62.2507 H       1  ZINC000433533595    0.0700
     42 H42        -7.8327   -0.1118   60.6147 H       1  ZINC000433533595    0.0700
     43 H43        -8.6251    0.7169   59.2532 H       1  ZINC000433533595    0.0600
     44 H44        -8.7209    1.4056   60.8918 H       1  ZINC000433533595    0.0800
     45 H45        -9.7395   -2.1159   54.2651 H       1  ZINC000433533595    0.1400
     46 H46       -11.9266   -1.2386   53.3255 H       1  ZINC000433533595    0.0900
     47 H47       -11.2189    0.4636   53.2680 H       1  ZINC000433533595    0.1400
     48 H48        -9.3982   -0.3462   51.6986 H       1  ZINC000433533595    0.1000
     49 H49       -10.1058   -2.0484   51.7560 H       1  ZINC000433533595    0.1000
@<TRIPOS>BOND
     1     1     2    1
     2     1    25    1
     3     1    26    1
     4     1    27    1
     5     2     3    1
     6     2    28    1
     7     2    29    1
     8     3     4    1
     9     3    30    1
    10     3    31    1
    11     4     5    1
    12     4    32    1
    13     4    33    1
    14     5     6   am
    15     5    22    1
    16     6     7    2
    17     6     8    1
    18     8     9    2
    19     8    10   am
    20    10    11    1
    21    10    34    1
    22    11    17   ar
    23    11    12   ar
    24    12    13   ar
    25    12    35    1
    26    13    14    1
    27    13    15   ar
    28    15    16   ar
    29    15    36    1
    30    16    17   ar
    31    16    37    1
    32    17    18    1
    33    18    19    1
    34    19    20    1
    35    19    21    1
    36    19    38    1
    37    20    39    1
    38    20    40    1
    39    20    41    1
    40    21    42    1
    41    21    43    1
    42    21    44    1
    43    22    24    1
    44    22    23    1
    45    22    45    1
    46    23    24    1
    47    23    46    1
    48    23    47    1
    49    24    48    1
    50    24    49    1
@<TRIPOS>SUBSTRUCTURE
     1 ZINC000433533595        1 TEMP              0 ****  ****    0 ROOT


##########                                Name:    ZINC000426037318
##########                DOCK_Rotatable_Bonds:                   7
##########                         Heavy_Atoms:                  28
##########                    Molecular_Weight:             421.904
##########                DOCK_Rotatable_Bonds:                   7
##########                       Formal_Charge:         -0.00999981
##########                     HBond_Acceptors:                   9
##########                        HBond_Donors:                   1
##########                         Heavy_Atoms:                  28
##########                          Grid_Score:          -31.669582
##########                     Grid_vdw_energy:          -31.156694
##########                      Grid_es_energy:           -0.512888
##########           Internal_energy_repulsive:           18.187960

@<TRIPOS>MOLECULE
ZINC000426037318
 48 50 1 0 0
SMALL
USER_CHARGES


@<TRIPOS>ATOM
      1 C1         -8.0532    0.2313   63.4725 C.3     1  ZINC000426037318    0.0300
      2 O2         -8.5601    0.5713   62.1805 O.3     1  ZINC000426037318   -0.3800
      3 C3         -9.3490   -0.4559   61.5768 C.3     1  ZINC000426037318    0.1300
      4 C4         -9.3154   -0.3001   60.0783 C.ar    1  ZINC000426037318    0.3900
      5 N5         -9.9533   -1.1821   59.3300 N.ar    1  ZINC000426037318   -0.5700
      6 C6         -9.9557   -1.0910   58.0108 C.ar    1  ZINC000426037318    0.4400
      7 O7        -10.6153   -2.0037   57.2603 O.3     1  ZINC000426037318   -0.2800
      8 C8        -11.6181   -2.7813   57.9174 C.3     1  ZINC000426037318    0.0300
      9 C9         -9.2553   -0.0198   57.3933 C.ar    1  ZINC000426037318   -0.2000
     10 C10        -9.1069    0.2950   56.0376 C.2     1  ZINC000426037318    0.0500
     11 C11        -9.7286   -0.5377   54.9461 C.3     1  ZINC000426037318   -0.1200
     12 C12        -8.3760    1.3854   55.7757 C.2     1  ZINC000426037318   -0.2700
     13 C13        -8.0932    1.8974   54.4291 C.2     1  ZINC000426037318    0.6000
     14 O14        -7.2202    1.3845   53.7541 O.2     1  ZINC000426037318   -0.5000
     15 N15        -8.8004    2.9354   53.9405 N.am    1  ZINC000426037318   -0.6600
     16 C16        -8.5305    3.4239   52.6556 C.ar    1  ZINC000426037318    0.1200
     17 C17        -7.2927    3.9838   52.3714 C.ar    1  ZINC000426037318   -0.0700
     18 C18        -7.0270    4.4649   51.1040 C.ar    1  ZINC000426037318   -0.0900
     19 C19        -5.6828    5.0723   50.7956 C.3     1  ZINC000426037318   -0.1100
     20 C20        -7.9966    4.3889   50.1152 C.ar    1  ZINC000426037318    0.1300
     21 O21        -7.7338    4.8624   48.8680 O.3     1  ZINC000426037318   -0.3100
     22 C22        -8.7618    4.7121   47.8869 C.3     1  ZINC000426037318    0.0200
     23 C23        -9.2345    3.8295   50.3976 C.ar    1  ZINC000426037318   -0.1800
     24 C24        -9.5002    3.3431   51.6631 C.ar    1  ZINC000426037318   -0.0300
     25 Cl25      -11.0488    2.6425   52.0167 Cl      1  ZINC000426037318   -0.0600
     26 S26        -7.8028    2.1195   57.2636 S.3     1  ZINC000426037318    0.2200
     27 C27        -8.5957    0.8871   58.2355 C.ar    1  ZINC000426037318    0.1300
     28 N28        -8.6572    0.7111   59.5598 N.ar    1  ZINC000426037318   -0.5000
     29 H29        -7.4655    1.0624   63.8624 H       1  ZINC000426037318    0.0900
     30 H30        -8.8849    0.0266   64.1467 H       1  ZINC000426037318    0.0500
     31 H31        -7.4226   -0.6544   63.3940 H       1  ZINC000426037318    0.0500
     32 H32        -8.9463   -1.4312   61.8499 H       1  ZINC000426037318    0.0900
     33 H33       -10.3782   -0.3767   61.9272 H       1  ZINC000426037318    0.0800
     34 H34       -12.3869   -2.1199   58.3169 H       1  ZINC000426037318    0.0700
     35 H35       -12.0678   -3.4719   57.2041 H       1  ZINC000426037318    0.1100
     36 H36       -11.1645   -3.3452   58.7326 H       1  ZINC000426037318    0.0700
     37 H37       -10.7266   -0.1596   54.7245 H       1  ZINC000426037318    0.0900
     38 H38        -9.1112   -0.4810   54.0496 H       1  ZINC000426037318    0.1000
     39 H39        -9.7976   -1.5746   55.2748 H       1  ZINC000426037318    0.0800
     40 H40        -9.4964    3.3443   54.4785 H       1  ZINC000426037318    0.4100
     41 H41        -6.5374    4.0437   53.1410 H       1  ZINC000426037318    0.1600
     42 H42        -5.0046    4.2946   50.4445 H       1  ZINC000426037318    0.0700
     43 H43        -5.7962    5.8319   50.0220 H       1  ZINC000426037318    0.0700
     44 H44        -5.2754    5.5300   51.6971 H       1  ZINC000426037318    0.0700
     45 H45        -8.9877    3.6538   47.7566 H       1  ZINC000426037318    0.0600
     46 H46        -9.6582    5.2372   48.2165 H       1  ZINC000426037318    0.0600
     47 H47        -8.4234    5.1307   46.9390 H       1  ZINC000426037318    0.1000
     48 H48        -9.9890    3.7707   49.6271 H       1  ZINC000426037318    0.1500
@<TRIPOS>BOND
     1     1     2    1
     2     1    29    1
     3     1    30    1
     4     1    31    1
     5     2     3    1
     6     3     4    1
     7     3    32    1
     8     3    33    1
     9     4    28   ar
    10     4     5   ar
    11     5     6   ar
    12     6     7    1
    13     6     9   ar
    14     7     8    1
    15     8    34    1
    16     8    35    1
    17     8    36    1
    18     9    27   ar
    19     9    10    1
    20    10    11    1
    21    10    12    2
    22    11    37    1
    23    11    38    1
    24    11    39    1
    25    12    13    1
    26    12    26    1
    27    13    14    2
    28    13    15   am
    29    15    16    1
    30    15    40    1
    31    16    24   ar
    32    16    17   ar
    33    17    18   ar
    34    17    41    1
    35    18    19    1
    36    18    20   ar
    37    19    42    1
    38    19    43    1
    39    19    44    1
    40    20    21    1
    41    20    23   ar
    42    21    22    1
    43    22    45    1
    44    22    46    1
    45    22    47    1
    46    23    24   ar
    47    23    48    1
    48    24    25    1
    49    26    27    1
    50    27    28   ar
@<TRIPOS>SUBSTRUCTURE
     1 ZINC000426037318        1 TEMP              0 ****  ****    0 ROOT


##########                                Name:    ZINC000892249927
##########                DOCK_Rotatable_Bonds:                   8
##########                         Heavy_Atoms:                  27
##########                    Molecular_Weight:             364.487
##########                DOCK_Rotatable_Bonds:                   8
##########                       Formal_Charge:          -0.0300015
##########                     HBond_Acceptors:                   4
##########                        HBond_Donors:                   1
##########                         Heavy_Atoms:                  27
##########                          Grid_Score:          -31.665752
##########                     Grid_vdw_energy:          -31.852753
##########                      Grid_es_energy:            0.187000
##########           Internal_energy_repulsive:           10.671505

@<TRIPOS>MOLECULE
ZINC000892249927
 55 58 1 0 0
SMALL
USER_CHARGES


@<TRIPOS>ATOM
      1 O1        -12.5620   -1.1621   55.2369 O.2     1  ZINC000892249927   -0.5300
      2 C2        -11.3834   -1.1601   55.5231 C.2     1  ZINC000892249927    0.5100
      3 C3        -10.8832   -2.0111   56.6618 C.3     1  ZINC000892249927   -0.1400
      4 C4        -10.8755   -1.1858   57.9502 C.3     1  ZINC000892249927   -0.1000
      5 C5        -10.7594   -2.1219   59.1548 C.3     1  ZINC000892249927   -0.0800
      6 C6        -10.5397   -1.3080   60.4040 C.ar    1  ZINC000892249927   -0.0900
      7 C7        -11.5948   -0.6233   60.9774 C.ar    1  ZINC000892249927   -0.1100
      8 C8        -11.3931    0.1232   62.1233 C.ar    1  ZINC000892249927   -0.1100
      9 C9        -10.1366    0.1846   62.6960 C.ar    1  ZINC000892249927   -0.0500
     10 C10        -9.9167    0.9988   63.9450 C.3     1  ZINC000892249927   -0.1200
     11 C11        -8.9885    0.4170   65.0131 C.3     1  ZINC000892249927   -0.1800
     12 C12        -8.5266    1.6005   64.1603 C.3     1  ZINC000892249927   -0.1700
     13 C13        -9.0818   -0.5013   62.1234 C.ar    1  ZINC000892249927   -0.1200
     14 C14        -9.2843   -1.2509   60.9797 C.ar    1  ZINC000892249927   -0.1100
     15 N15       -10.5202   -0.4013   54.8192 N.am    1  ZINC000892249927   -0.7300
     16 C16       -11.0065    0.4259   53.7123 C.3     1  ZINC000892249927    0.1400
     17 H17       -11.9550    0.8857   53.9898 H       1  ZINC000892249927    0.1000
     18 C18       -11.2045   -0.4466   52.4690 C.3     1  ZINC000892249927   -0.1700
     19 C19        -9.8535   -1.0265   52.0418 C.3     1  ZINC000892249927    0.0600
     20 O20        -8.9354    0.0403   51.7949 O.3     1  ZINC000892249927   -0.3700
     21 C21        -8.6750    0.8616   52.9350 C.3     1  ZINC000892249927    0.1400
     22 H22        -8.2707    0.2482   53.7402 H       1  ZINC000892249927    0.0700
     23 C23        -7.6777    1.9300   52.5676 C.ar    1  ZINC000892249927   -0.1400
     24 C24        -7.9054    2.7585   51.4798 C.ar    1  ZINC000892249927   -0.0700
     25 C25        -6.9605    3.7280   51.1792 C.ar    1  ZINC000892249927   -0.1700
     26 C26        -5.8313    3.8353   51.9685 C.ar    1  ZINC000892249927    0.1000
     27 N27        -5.6477    3.0294   52.9963 N.ar    1  ZINC000892249927   -0.4900
     28 C28        -6.5271    2.1001   53.3146 C.ar    1  ZINC000892249927    0.1300
     29 C29        -9.9796    1.5187   53.3996 C.3     1  ZINC000892249927   -0.1500
     30 H30       -11.5386   -2.8731   56.7865 H       1  ZINC000892249927    0.0900
     31 H31        -9.8714   -2.3526   56.4431 H       1  ZINC000892249927    0.0900
     32 H32       -10.0269   -0.5017   57.9384 H       1  ZINC000892249927    0.0700
     33 H33       -11.8013   -0.6149   58.0214 H       1  ZINC000892249927    0.0700
     34 H34       -11.6776   -2.7006   59.2551 H       1  ZINC000892249927    0.0700
     35 H35        -9.9174   -2.7985   59.0093 H       1  ZINC000892249927    0.0700
     36 H36       -12.5766   -0.6712   60.5299 H       1  ZINC000892249927    0.1200
     37 H37       -12.2174    0.6588   62.5709 H       1  ZINC000892249927    0.1200
     38 H38       -10.7745    1.5790   64.2849 H       1  ZINC000892249927    0.1100
     39 H39        -9.2356    0.6145   66.0562 H       1  ZINC000892249927    0.1000
     40 H40        -8.5368   -0.5545   64.8126 H       1  ZINC000892249927    0.1000
     41 H41        -7.7711    1.4074   63.3988 H       1  ZINC000892249927    0.1000
     42 H42        -8.4698    2.5764   64.6425 H       1  ZINC000892249927    0.1000
     43 H43        -8.1001   -0.4537   62.5711 H       1  ZINC000892249927    0.1200
     44 H44        -8.4601   -1.7868   60.5324 H       1  ZINC000892249927    0.1200
     45 H45        -9.5770   -0.4027   55.0457 H       1  ZINC000892249927    0.4000
     46 H46       -11.8929   -1.2595   52.7003 H       1  ZINC000892249927    0.0800
     47 H47       -11.6131    0.1590   51.6601 H       1  ZINC000892249927    0.0800
     48 H48        -9.4645   -1.6646   52.8352 H       1  ZINC000892249927    0.0500
     49 H49        -9.9813   -1.6138   51.1325 H       1  ZINC000892249927    0.1000
     50 H50        -8.7973    2.6511   50.8802 H       1  ZINC000892249927    0.1300
     51 H51        -7.1052    4.3905   50.3387 H       1  ZINC000892249927    0.1400
     52 H52        -5.0905    4.5874   51.7409 H       1  ZINC000892249927    0.1600
     53 H53        -6.3422    1.4586   54.1636 H       1  ZINC000892249927    0.1600
     54 H54       -10.3637    2.1644   52.6098 H       1  ZINC000892249927    0.0900
     55 H55        -9.7906    2.1104   54.2953 H       1  ZINC000892249927    0.0800
@<TRIPOS>BOND
     1     1     2    2
     2     2     3    1
     3     2    15   am
     4     3     4    1
     5     3    30    1
     6     3    31    1
     7     4     5    1
     8     4    32    1
     9     4    33    1
    10     5     6    1
    11     5    34    1
    12     5    35    1
    13     6    14   ar
    14     6     7   ar
    15     7     8   ar
    16     7    36    1
    17     8     9   ar
    18     8    37    1
    19     9    10    1
    20     9    13   ar
    21    10    12    1
    22    10    11    1
    23    10    38    1
    24    11    12    1
    25    11    39    1
    26    11    40    1
    27    12    41    1
    28    12    42    1
    29    13    14   ar
    30    13    43    1
    31    14    44    1
    32    15    16    1
    33    15    45    1
    34    16    17    1
    35    16    29    1
    36    16    18    1
    37    18    19    1
    38    18    46    1
    39    18    47    1
    40    19    20    1
    41    19    48    1
    42    19    49    1
    43    20    21    1
    44    21    22    1
    45    21    23    1
    46    21    29    1
    47    23    28   ar
    48    23    24   ar
    49    24    25   ar
    50    24    50    1
    51    25    26   ar
    52    25    51    1
    53    26    27   ar
    54    26    52    1
    55    27    28   ar
    56    28    53    1
    57    29    54    1
    58    29    55    1
@<TRIPOS>SUBSTRUCTURE
     1 ZINC000892249927        1 TEMP              0 ****  ****    0 ROOT


##########                                Name:    ZINC000579444893
##########                DOCK_Rotatable_Bonds:                   8
##########                         Heavy_Atoms:                  26
##########                    Molecular_Weight:             365.494
##########                DOCK_Rotatable_Bonds:                   8
##########                       Formal_Charge:         -0.00999993
##########                     HBond_Acceptors:                   7
##########                        HBond_Donors:                   1
##########                         Heavy_Atoms:                  26
##########                          Grid_Score:          -31.635284
##########                     Grid_vdw_energy:          -31.385355
##########                      Grid_es_energy:           -0.249930
##########           Internal_energy_repulsive:           25.758207

@<TRIPOS>MOLECULE
ZINC000579444893
 58 60 1 0 0
SMALL
USER_CHARGES


@<TRIPOS>ATOM
      1 C1         -7.3149    2.8201   54.9249 C.3     1  ZINC000579444893   -0.1600
      2 C2         -8.0932    1.5350   55.2144 C.3     1  ZINC000579444893    0.1700
      3 H3         -7.4062    0.7658   55.5672 H       1  ZINC000579444893    0.0900
      4 N4         -9.1029    1.7969   56.2430 N.am    1  ZINC000579444893   -0.7400
      5 C5         -8.8130    1.5838   57.5418 C.2     1  ZINC000579444893    0.7100
      6 O6         -7.7136    1.1728   57.8597 O.2     1  ZINC000579444893   -0.5900
      7 N7         -9.7413    1.8263   58.4882 N.am    1  ZINC000579444893   -0.6300
      8 C8        -11.0664    2.3199   58.1050 C.3     1  ZINC000579444893    0.0800
      9 C9         -9.4255    1.5964   59.9001 C.3     1  ZINC000579444893    0.1100
     10 C10        -9.3245    0.0923   60.1618 C.3     1  ZINC000579444893    0.0600
     11 H11        -8.5056   -0.3309   59.5803 H       1  ZINC000579444893    0.1000
     12 C12       -10.6511   -0.5973   59.7794 C.3     1  ZINC000579444893   -0.1600
     13 C13       -10.8184   -1.6714   60.8862 C.3     1  ZINC000579444893    0.0800
     14 H14       -10.2379   -2.5644   60.6546 H       1  ZINC000579444893    0.1000
     15 F15       -12.1675   -1.9892   61.0762 F       1  ZINC000579444893   -0.2000
     16 C16       -10.2404   -0.9391   62.1228 C.3     1  ZINC000579444893    0.0200
     17 N17        -9.0991   -0.1530   61.5981 N.3     1  ZINC000579444893   -0.5000
     18 C18        -8.9497    1.1114   62.3309 C.3     1  ZINC000579444893    0.1000
     19 C19        -8.5999    0.8211   63.7676 C.2     1  ZINC000579444893    0.0800
     20 C20        -7.5282    0.1181   64.2014 C.2     1  ZINC000579444893   -0.2500
     21 C21        -7.5741    0.0821   65.5990 C.2     1  ZINC000579444893    0.0400
     22 N22        -8.6353    0.7400   65.9901 N.2     1  ZINC000579444893   -0.2900
     23 N23        -9.2963    1.2206   64.8524 N.pl3   1  ZINC000579444893   -0.3700
     24 C24       -10.5307    2.0096   64.8416 C.3     1  ZINC000579444893    0.0900
     25 C25        -8.7812    1.0561   53.9345 C.3     1  ZINC000579444893   -0.1000
     26 C26        -7.7431    0.4610   52.9511 C.3     1  ZINC000579444893   -0.1200
     27 C27        -8.6055   -0.4762   52.0695 C.3     1  ZINC000579444893   -0.1300
     28 C28        -9.6192   -1.0947   53.0540 C.3     1  ZINC000579444893   -0.1300
     29 C29        -9.7310   -0.1205   54.2398 C.3     1  ZINC000579444893   -0.1200
     30 H30        -6.9009    3.2113   55.8542 H       1  ZINC000579444893    0.0600
     31 H31        -6.5045    2.6049   54.2283 H       1  ZINC000579444893    0.0700
     32 H32        -7.9847    3.5594   54.4858 H       1  ZINC000579444893    0.0500
     33 H33        -9.9803    2.1236   55.9893 H       1  ZINC000579444893    0.4000
     34 H34       -11.7043    1.4776   57.8372 H       1  ZINC000579444893    0.0600
     35 H35       -11.5093    2.8595   58.9421 H       1  ZINC000579444893    0.0800
     36 H36       -10.9714    2.9897   57.2504 H       1  ZINC000579444893    0.0700
     37 H37        -8.4749    2.0718   60.1419 H       1  ZINC000579444893    0.0900
     38 H38       -10.2129    2.0214   60.5225 H       1  ZINC000579444893    0.0900
     39 H39       -11.4765    0.1141   59.8047 H       1  ZINC000579444893    0.1100
     40 H40       -10.5735   -1.0643   58.7976 H       1  ZINC000579444893    0.0800
     41 H41       -10.9903   -0.2781   62.5573 H       1  ZINC000579444893    0.0600
     42 H42        -9.8941   -1.6601   62.8632 H       1  ZINC000579444893    0.0900
     43 H43        -8.1554    1.7033   61.8760 H       1  ZINC000579444893    0.1100
     44 H44        -9.8862    1.6678   62.2901 H       1  ZINC000579444893    0.0500
     45 H45        -6.7713   -0.3354   63.5787 H       1  ZINC000579444893    0.1500
     46 H46        -6.8576   -0.4050   66.2437 H       1  ZINC000579444893    0.1800
     47 H47       -10.2833    3.0710   64.8273 H       1  ZINC000579444893    0.0800
     48 H48       -11.1135    1.7604   63.9549 H       1  ZINC000579444893    0.0800
     49 H49       -11.1136    1.7844   65.7347 H       1  ZINC000579444893    0.0900
     50 H50        -9.3271    1.8754   53.4665 H       1  ZINC000579444893    0.0800
     51 H51        -7.2870    1.2465   52.3486 H       1  ZINC000579444893    0.0700
     52 H52        -6.9828   -0.1058   53.4884 H       1  ZINC000579444893    0.0700
     53 H53        -9.1224    0.0947   51.2982 H       1  ZINC000579444893    0.0700
     54 H54        -7.9871   -1.2532   51.6203 H       1  ZINC000579444893    0.0700
     55 H55       -10.5894   -1.2066   52.5699 H       1  ZINC000579444893    0.0600
     56 H56        -9.2602   -2.0641   53.3999 H       1  ZINC000579444893    0.0600
     57 H57        -9.4261   -0.6170   55.1610 H       1  ZINC000579444893    0.0600
     58 H58       -10.7554    0.2405   54.3312 H       1  ZINC000579444893    0.0600
@<TRIPOS>BOND
     1     1     2    1
     2     1    30    1
     3     1    31    1
     4     1    32    1
     5     2     3    1
     6     2     4    1
     7     2    25    1
     8     4     5   am
     9     4    33    1
    10     5     6    2
    11     5     7   am
    12     7     8    1
    13     7     9    1
    14     8    34    1
    15     8    35    1
    16     8    36    1
    17     9    10    1
    18     9    37    1
    19     9    38    1
    20    10    11    1
    21    10    17    1
    22    10    12    1
    23    12    13    1
    24    12    39    1
    25    12    40    1
    26    13    14    1
    27    13    15    1
    28    13    16    1
    29    16    17    1
    30    16    41    1
    31    16    42    1
    32    17    18    1
    33    18    19    1
    34    18    43    1
    35    18    44    1
    36    19    23    1
    37    19    20    2
    38    20    21    1
    39    20    45    1
    40    21    22    2
    41    21    46    1
    42    22    23    1
    43    23    24    1
    44    24    47    1
    45    24    48    1
    46    24    49    1
    47    25    29    1
    48    25    26    1
    49    25    50    1
    50    26    27    1
    51    26    51    1
    52    26    52    1
    53    27    28    1
    54    27    53    1
    55    27    54    1
    56    28    29    1
    57    28    55    1
    58    28    56    1
    59    29    57    1
    60    29    58    1
@<TRIPOS>SUBSTRUCTURE
     1 ZINC000579444893        1 TEMP              0 ****  ****    0 ROOT


##########                                Name:    ZINC000573650873
##########                DOCK_Rotatable_Bonds:                  10
##########                         Heavy_Atoms:                  28
##########                    Molecular_Weight:             418.843
##########                DOCK_Rotatable_Bonds:                  10
##########                       Formal_Charge:          -0.0500001
##########                     HBond_Acceptors:                   9
##########                        HBond_Donors:                   1
##########                         Heavy_Atoms:                  28
##########                          Grid_Score:          -31.631632
##########                     Grid_vdw_energy:          -30.681049
##########                      Grid_es_energy:           -0.950582
##########           Internal_energy_repulsive:           16.194960

@<TRIPOS>MOLECULE
ZINC000573650873
 50 51 1 0 0
SMALL
USER_CHARGES


@<TRIPOS>ATOM
      1 C1         -9.0698    2.5112   65.1875 C.3     1  ZINC000573650873   -0.1400
      2 C2         -9.2880    0.9973   65.1534 C.3     1  ZINC000573650873    0.0100
      3 C3         -7.9330    0.2867   65.1482 C.3     1  ZINC000573650873   -0.1400
      4 C4        -10.0837    0.5688   66.3880 C.3     1  ZINC000573650873   -0.1500
      5 C5        -10.0537    0.6279   63.9092 C.2     1  ZINC000573650873   -0.0100
      6 C6         -9.8278   -0.4392   63.1083 C.2     1  ZINC000573650873   -0.1800
      7 C7        -10.8170   -0.3205   62.0927 C.2     1  ZINC000573650873   -0.0300
      8 C8        -11.0290   -1.2341   60.9436 C.2     1  ZINC000573650873    0.6000
      9 O9        -11.9681   -2.0049   60.9456 O.2     1  ZINC000573650873   -0.5100
     10 N10       -10.1798   -1.2093   59.8973 N.am    1  ZINC000573650873   -0.5900
     11 C11        -9.0473   -0.2799   59.8949 C.3     1  ZINC000573650873    0.1200
     12 C12        -9.5455    1.1301   59.5713 C.3     1  ZINC000573650873   -0.1000
     13 C13        -8.4974    1.8624   58.7737 C.ar    1  ZINC000573650873   -0.0800
     14 C14        -8.2491    1.5009   57.4627 C.ar    1  ZINC000573650873   -0.1000
     15 C15        -7.2880    2.1722   56.7305 C.ar    1  ZINC000573650873   -0.1100
     16 C16        -6.5745    3.2062   57.3100 C.ar    1  ZINC000573650873   -0.0400
     17 Cl17       -5.3675    4.0503   56.3910 Cl      1  ZINC000573650873   -0.0700
     18 C18        -6.8234    3.5676   58.6221 C.ar    1  ZINC000573650873   -0.1100
     19 C19        -7.7887    2.8992   59.3514 C.ar    1  ZINC000573650873   -0.1000
     20 C20       -10.3892   -2.1117   58.7624 C.3     1  ZINC000573650873    0.0700
     21 C21       -11.5085   -1.5635   57.8748 C.3     1  ZINC000573650873    0.0600
     22 H22       -12.3474   -1.2535   58.4978 H       1  ZINC000573650873    0.1400
     23 O23       -11.0236   -0.4408   57.1356 O.3     1  ZINC000573650873   -0.5200
     24 C24       -11.9694   -2.6528   56.9042 C.3     1  ZINC000573650873    0.4300
     25 F25       -12.9388   -2.1295   56.0420 F       1  ZINC000573650873   -0.1700
     26 F26       -10.8762   -3.1047   56.1573 F       1  ZINC000573650873   -0.1700
     27 F27       -12.5143   -3.7203   57.6258 F       1  ZINC000573650873   -0.1800
     28 N28       -11.5032    0.7583   62.3775 N.2     1  ZINC000573650873   -0.3400
     29 O29       -11.0944    1.2892   63.3840 O.3     1  ZINC000573650873    0.1300
     30 H30        -8.5029    2.8165   64.3079 H       1  ZINC000573650873    0.0600
     31 H31       -10.0352    3.0174   65.1913 H       1  ZINC000573650873    0.0600
     32 H32        -8.5161    2.7784   66.0875 H       1  ZINC000573650873    0.0700
     33 H33        -7.3792    0.5539   66.0481 H       1  ZINC000573650873    0.0700
     34 H34        -8.0885   -0.7918   65.1240 H       1  ZINC000573650873    0.0600
     35 H35        -7.3661    0.5919   64.2687 H       1  ZINC000573650873    0.0600
     36 H36       -11.0491    1.0750   66.3918 H       1  ZINC000573650873    0.0600
     37 H37       -10.2392   -0.5097   66.3639 H       1  ZINC000573650873    0.0600
     38 H38        -9.5299    0.8360   67.2880 H       1  ZINC000573650873    0.0700
     39 H39        -9.0720   -1.2032   63.2150 H       1  ZINC000573650873    0.1800
     40 H40        -8.5738   -0.2816   60.8767 H       1  ZINC000573650873    0.0900
     41 H41        -8.3234   -0.5912   59.1418 H       1  ZINC000573650873    0.1000
     42 H42       -10.4654    1.0659   58.9901 H       1  ZINC000573650873    0.0800
     43 H43        -9.7387    1.6690   60.4989 H       1  ZINC000573650873    0.0800
     44 H44        -8.8060    0.6934   57.0105 H       1  ZINC000573650873    0.1300
     45 H45        -7.0938    1.8894   55.7065 H       1  ZINC000573650873    0.1300
     46 H46        -6.2665    4.3745   59.0751 H       1  ZINC000573650873    0.1300
     47 H47        -7.9834    3.1814   60.3756 H       1  ZINC000573650873    0.1300
     48 H48        -9.4692   -2.1860   58.1827 H       1  ZINC000573650873    0.1000
     49 H49       -10.6678   -3.0993   59.1300 H       1  ZINC000573650873    0.1200
     50 H50       -10.1880   -0.6033   56.6767 H       1  ZINC000573650873    0.3900
@<TRIPOS>BOND
     1     1     2    1
     2     1    30    1
     3     1    31    1
     4     1    32    1
     5     2     3    1
     6     2     4    1
     7     2     5    1
     8     3    33    1
     9     3    34    1
    10     3    35    1
    11     4    36    1
    12     4    37    1
    13     4    38    1
    14     5    29    1
    15     5     6    2
    16     6     7    1
    17     6    39    1
    18     7     8    1
    19     7    28    2
    20     8     9    2
    21     8    10   am
    22    10    11    1
    23    10    20    1
    24    11    12    1
    25    11    40    1
    26    11    41    1
    27    12    13    1
    28    12    42    1
    29    12    43    1
    30    13    19   ar
    31    13    14   ar
    32    14    15   ar
    33    14    44    1
    34    15    16   ar
    35    15    45    1
    36    16    17    1
    37    16    18   ar
    38    18    19   ar
    39    18    46    1
    40    19    47    1
    41    20    21    1
    42    20    48    1
    43    20    49    1
    44    21    22    1
    45    21    23    1
    46    21    24    1
    47    23    50    1
    48    24    25    1
    49    24    26    1
    50    24    27    1
    51    28    29    1
@<TRIPOS>SUBSTRUCTURE
     1 ZINC000573650873        1 TEMP              0 ****  ****    0 ROOT


##########                                Name:    ZINC000566738344
##########                DOCK_Rotatable_Bonds:                   5
##########                         Heavy_Atoms:                  23
##########                    Molecular_Weight:             352.478
##########                DOCK_Rotatable_Bonds:                   5
##########                       Formal_Charge:           0.0100005
##########                     HBond_Acceptors:                   7
##########                        HBond_Donors:                   0
##########                         Heavy_Atoms:                  23
##########                          Grid_Score:          -31.622757
##########                     Grid_vdw_energy:          -28.804861
##########                      Grid_es_energy:           -2.817896
##########           Internal_energy_repulsive:           23.745817

@<TRIPOS>MOLECULE
ZINC000566738344
 43 44 1 0 0
SMALL
USER_CHARGES


@<TRIPOS>ATOM
      1 C1         -9.2291    2.4530   55.5277 C.3     1  ZINC000566738344   -0.1300
      2 C2         -9.5361    1.1031   56.1230 C.ar    1  ZINC000566738344   -0.0100
      3 C3         -9.2061    0.8365   57.4319 C.ar    1  ZINC000566738344   -0.1000
      4 C4         -9.4890   -0.4110   57.9827 C.ar    1  ZINC000566738344   -0.0500
      5 S5         -9.0643   -0.7487   59.6590 S.3     1  ZINC000566738344   -0.0300
      6 C6        -10.3636    0.1091   60.5900 C.3     1  ZINC000566738344   -0.1200
      7 H7        -10.5493    1.0844   60.1403 H       1  ZINC000566738344    0.1200
      8 C8        -11.6482   -0.7211   60.5558 C.3     1  ZINC000566738344   -0.1300
      9 C9         -9.9210    0.2909   62.0190 C.2     1  ZINC000566738344    0.5200
     10 O10       -10.2258   -0.5306   62.8575 O.2     1  ZINC000566738344   -0.5000
     11 N11        -9.1864    1.3665   62.3653 N.am    1  ZINC000566738344   -0.6000
     12 C12        -8.8198    2.3599   61.3529 C.3     1  ZINC000566738344    0.0600
     13 C13        -8.7546    1.5424   63.7541 C.3     1  ZINC000566738344    0.1500
     14 H14        -8.1578    2.4506   63.8400 H       1  ZINC000566738344    0.1300
     15 C15        -9.9869    1.6446   64.6700 C.3     1  ZINC000566738344   -0.1300
     16 C16        -9.4720    1.4936   66.1247 C.3     1  ZINC000566738344   -0.5900
     17 S17        -8.2566    0.1295   65.9780 S.o2    1  ZINC000566738344    2.4000
     18 O18        -7.0908    0.4555   66.7220 O.2     1  ZINC000566738344   -0.9300
     19 O19        -8.9128   -1.1115   66.1984 O.2     1  ZINC000566738344   -0.9300
     20 C20        -7.9146    0.3268   64.1937 C.3     1  ZINC000566738344   -0.6200
     21 C21       -10.1071   -1.3919   57.2115 C.ar    1  ZINC000566738344   -0.1400
     22 C22       -10.4397   -1.1314   55.9017 C.ar    1  ZINC000566738344   -0.0400
     23 C23       -10.1618    0.1218   55.3474 C.ar    1  ZINC000566738344   -0.0400
     24 C24       -10.5066    0.3960   53.9849 C.1     1  ZINC000566738344    0.2500
     25 N25       -10.7801    0.6137   52.9039 N.1     1  ZINC000566738344   -0.4100
     26 H26       -10.0738    3.1224   55.6904 H       1  ZINC000566738344    0.0800
     27 H27        -8.3406    2.8668   56.0046 H       1  ZINC000566738344    0.0800
     28 H28        -9.0509    2.3462   54.4577 H       1  ZINC000566738344    0.0700
     29 H29        -8.7268    1.5953   58.0327 H       1  ZINC000566738344    0.1400
     30 H30       -11.4877   -1.6611   61.0839 H       1  ZINC000566738344    0.0800
     31 H31       -12.4526   -0.1660   61.0385 H       1  ZINC000566738344    0.0800
     32 H32       -11.9198   -0.9278   59.5206 H       1  ZINC000566738344    0.0900
     33 H33        -9.5900    3.1295   61.3032 H       1  ZINC000566738344    0.0700
     34 H34        -7.8667    2.8164   61.6201 H       1  ZINC000566738344    0.0800
     35 H35        -8.7297    1.8729   60.3818 H       1  ZINC000566738344    0.0800
     36 H36       -10.4671    2.6148   64.5429 H       1  ZINC000566738344    0.1100
     37 H37       -10.6913    0.8457   64.4385 H       1  ZINC000566738344    0.0900
     38 H38        -8.9865    2.4099   66.4603 H       1  ZINC000566738344    0.1400
     39 H39       -10.2849    1.2170   66.7961 H       1  ZINC000566738344    0.1400
     40 H40        -8.2228   -0.5652   63.6483 H       1  ZINC000566738344    0.1400
     41 H41        -6.8550    0.5238   64.0310 H       1  ZINC000566738344    0.1500
     42 H42       -10.3255   -2.3582   57.6417 H       1  ZINC000566738344    0.1200
     43 H43       -10.9188   -1.8928   55.3041 H       1  ZINC000566738344    0.1400
@<TRIPOS>BOND
     1     1     2    1
     2     1    26    1
     3     1    27    1
     4     1    28    1
     5     2    23   ar
     6     2     3   ar
     7     3     4   ar
     8     3    29    1
     9     4     5    1
    10     4    21   ar
    11     5     6    1
    12     6     7    1
    13     6     8    1
    14     6     9    1
    15     8    30    1
    16     8    31    1
    17     8    32    1
    18     9    10    2
    19     9    11   am
    20    11    12    1
    21    11    13    1
    22    12    33    1
    23    12    34    1
    24    12    35    1
    25    13    14    1
    26    13    20    1
    27    13    15    1
    28    15    16    1
    29    15    36    1
    30    15    37    1
    31    16    17    1
    32    16    38    1
    33    16    39    1
    34    17    18    2
    35    17    19    2
    36    17    20    1
    37    20    40    1
    38    20    41    1
    39    21    22   ar
    40    21    42    1
    41    22    23   ar
    42    22    43    1
    43    23    24    1
    44    24    25    3
@<TRIPOS>SUBSTRUCTURE
     1 ZINC000566738344        1 TEMP              0 ****  ****    0 ROOT


##########                                Name:    ZINC000880838037
##########                DOCK_Rotatable_Bonds:                   9
##########                         Heavy_Atoms:                  24
##########                    Molecular_Weight:             365.477
##########                DOCK_Rotatable_Bonds:                   9
##########                       Formal_Charge:           0.0200001
##########                     HBond_Acceptors:                   8
##########                        HBond_Donors:                   3
##########                         Heavy_Atoms:                  24
##########                          Grid_Score:          -31.552929
##########                     Grid_vdw_energy:          -28.540644
##########                      Grid_es_energy:           -3.012286
##########           Internal_energy_repulsive:           11.952253

@<TRIPOS>MOLECULE
ZINC000880838037
 43 44 1 0 0
SMALL
USER_CHARGES


@<TRIPOS>ATOM
      1 C1        -15.7167   -3.1029   55.6221 C.3     1  ZINC000880838037    0.0300
      2 O2        -15.0025   -3.4862   56.7990 O.3     1  ZINC000880838037   -0.3100
      3 C3        -14.6608   -2.4950   57.6636 C.ar    1  ZINC000880838037    0.1400
      4 C4        -15.6492   -1.7559   58.2981 C.ar    1  ZINC000880838037   -0.2200
      5 C5        -15.3032   -0.7474   59.1776 C.ar    1  ZINC000880838037   -0.0700
      6 C6        -13.9731   -0.4715   59.4275 C.ar    1  ZINC000880838037   -0.1500
      7 C7        -12.9794   -1.2080   58.7947 C.ar    1  ZINC000880838037    0.1800
      8 N8        -11.6318   -0.9286   59.0478 N.am    1  ZINC000880838037   -0.6700
      9 C9        -10.9394   -1.6852   59.9221 C.2     1  ZINC000880838037    0.5200
     10 O10       -11.4843   -2.6082   60.4896 O.2     1  ZINC000880838037   -0.4900
     11 C11        -9.4882   -1.3842   60.1946 C.3     1  ZINC000880838037   -0.0600
     12 C12        -9.3589    0.0154   60.7381 C.2     1  ZINC000880838037    0.1000
     13 C13        -9.0880    1.0667   59.9639 C.2     1  ZINC000880838037   -0.2600
     14 S14        -9.0243    2.4987   60.9880 S.3     1  ZINC000880838037    0.1300
     15 C15        -9.3691    1.5436   62.3634 C.2     1  ZINC000880838037    0.0100
     16 S16        -9.5193    2.1588   64.0077 S.3     1  ZINC000880838037    0.1000
     17 C17        -9.7250    0.6021   64.9081 C.3     1  ZINC000880838037   -0.1500
     18 H18       -10.2779   -0.1049   64.2897 H       1  ZINC000880838037    0.1200
     19 C19       -10.4977    0.8602   66.2031 C.3     1  ZINC000880838037   -0.1500
     20 C20        -8.3704    0.0294   65.2371 C.2     1  ZINC000880838037    0.5400
     21 N21        -7.3899    0.0441   64.3124 N.am    1  ZINC000880838037   -0.8400
     22 O22        -8.1626   -0.4447   66.3338 O.2     1  ZINC000880838037   -0.5200
     23 N23        -9.5101    0.3005   62.0191 N.2     1  ZINC000880838037   -0.4200
     24 C24       -13.3249   -2.2252   57.9165 C.ar    1  ZINC000880838037   -0.1500
     25 C25       -12.2496   -3.0261   57.2283 C.3     1  ZINC000880838037   -0.1000
     26 H26       -15.1136   -2.4039   55.0427 H       1  ZINC000880838037    0.0600
     27 H27       -15.9267   -3.9872   55.0203 H       1  ZINC000880838037    0.1000
     28 H28       -16.6546   -2.6253   55.9055 H       1  ZINC000880838037    0.0600
     29 H29       -16.6901   -1.9688   58.1041 H       1  ZINC000880838037    0.1300
     30 H30       -16.0744   -0.1737   59.6701 H       1  ZINC000880838037    0.1300
     31 H31       -13.7054    0.3173   60.1148 H       1  ZINC000880838037    0.1400
     32 H32       -11.1961   -0.1903   58.5938 H       1  ZINC000880838037    0.4100
     33 H33        -9.1006   -2.0947   60.9248 H       1  ZINC000880838037    0.1200
     34 H34        -8.9195   -1.4683   59.2686 H       1  ZINC000880838037    0.1200
     35 H35        -8.9338    1.0441   58.8953 H       1  ZINC000880838037    0.1800
     36 H36        -9.9447    1.5672   66.8215 H       1  ZINC000880838037    0.0900
     37 H37       -11.4775    1.2744   65.9652 H       1  ZINC000880838037    0.0800
     38 H38       -10.6215   -0.0772   66.7453 H       1  ZINC000880838037    0.0800
     39 H39        -6.5176   -0.3235   64.5245 H       1  ZINC000880838037    0.4000
     40 H40        -7.5565    0.4222   63.4348 H       1  ZINC000880838037    0.4100
     41 H41       -11.9923   -3.8903   57.8406 H       1  ZINC000880838037    0.0700
     42 H42       -12.6130   -3.3637   56.2577 H       1  ZINC000880838037    0.0700
     43 H43       -11.3659   -2.4035   57.0889 H       1  ZINC000880838037    0.0600
@<TRIPOS>BOND
     1     1     2    1
     2     1    26    1
     3     1    27    1
     4     1    28    1
     5     2     3    1
     6     3    24   ar
     7     3     4   ar
     8     4     5   ar
     9     4    29    1
    10     5     6   ar
    11     5    30    1
    12     6     7   ar
    13     6    31    1
    14     7     8    1
    15     7    24   ar
    16     8     9   am
    17     8    32    1
    18     9    10    2
    19     9    11    1
    20    11    12    1
    21    11    33    1
    22    11    34    1
    23    12    23    1
    24    12    13    2
    25    13    14    1
    26    13    35    1
    27    14    15    1
    28    15    16    1
    29    15    23    2
    30    16    17    1
    31    17    18    1
    32    17    19    1
    33    17    20    1
    34    19    36    1
    35    19    37    1
    36    19    38    1
    37    20    21   am
    38    20    22    2
    39    21    39    1
    40    21    40    1
    41    24    25    1
    42    25    41    1
    43    25    42    1
    44    25    43    1
@<TRIPOS>SUBSTRUCTURE
     1 ZINC000880838037        1 TEMP              0 ****  ****    0 ROOT


##########                                Name:    ZINC000572148596
##########                DOCK_Rotatable_Bonds:                   4
##########                         Heavy_Atoms:                  26
##########                    Molecular_Weight:             371.463
##########                DOCK_Rotatable_Bonds:                   4
##########                       Formal_Charge:          -0.0199999
##########                     HBond_Acceptors:                   8
##########                        HBond_Donors:                   0
##########                         Heavy_Atoms:                  26
##########                          Grid_Score:          -31.552467
##########                     Grid_vdw_energy:          -30.982302
##########                      Grid_es_energy:           -0.570165
##########           Internal_energy_repulsive:            8.544452

@<TRIPOS>MOLECULE
ZINC000572148596
 47 50 1 0 0
SMALL
USER_CHARGES


@<TRIPOS>ATOM
      1 C1        -12.7743   -1.9600   57.9967 C.3     1  ZINC000572148596   -0.1400
      2 C2        -11.3259   -2.4484   57.9281 C.3     1  ZINC000572148596    0.0800
      3 H3        -11.3079   -3.5378   57.9590 H       1  ZINC000572148596    0.1200
      4 C4        -10.6952   -1.9717   56.6452 C.2     1  ZINC000572148596    0.1800
      5 N5        -10.6243   -2.6382   55.5307 N.2     1  ZINC000572148596   -0.3500
      6 O6        -10.0578   -1.9848   54.6803 O.3     1  ZINC000572148596    0.0900
      7 C7         -9.6993   -0.7951   55.1881 C.2     1  ZINC000572148596    0.2300
      8 C8         -8.9904    0.2887   54.4796 C.ar    1  ZINC000572148596   -0.1200
      9 C9         -8.5832    1.4409   55.1677 C.ar    1  ZINC000572148596   -0.0100
     10 C10        -7.9284    2.4211   54.4703 C.ar    1  ZINC000572148596   -0.1900
     11 C11        -7.6876    2.2472   53.1094 C.ar    1  ZINC000572148596    0.3400
     12 N12        -7.0247    3.2371   52.4006 N.3     1  ZINC000572148596   -0.4700
     13 C13        -7.0467    2.9566   50.9577 C.3     1  ZINC000572148596    0.0300
     14 C14        -6.3578    4.1014   50.2101 C.3     1  ZINC000572148596    0.0900
     15 H15        -6.3211    3.8708   49.1454 H       1  ZINC000572148596    0.1100
     16 C16        -7.1422    5.3973   50.4254 C.3     1  ZINC000572148596   -0.1800
     17 O17        -5.0275    4.2587   50.7109 O.3     1  ZINC000572148596   -0.3700
     18 C18        -4.9688    4.5336   52.1131 C.3     1  ZINC000572148596    0.0800
     19 H19        -5.4868    5.4695   52.3225 H       1  ZINC000572148596    0.0700
     20 C20        -3.5072    4.6498   52.5502 C.3     1  ZINC000572148596   -0.1400
     21 C21        -5.6437    3.3932   52.8799 C.3     1  ZINC000572148596    0.0300
     22 N22        -8.0832    1.1478   52.4828 N.ar    1  ZINC000572148596   -0.5200
     23 C23        -8.7105    0.1789   53.1169 C.ar    1  ZINC000572148596    0.1900
     24 N24       -10.1104   -0.7807   56.4446 N.2     1  ZINC000572148596   -0.4700
     25 C25       -10.5548   -1.9001   59.1011 C.2     1  ZINC000572148596    0.0400
     26 N26        -9.2871   -1.6600   59.1044 N.2     1  ZINC000572148596   -0.4500
     27 C27        -8.7693   -1.1795   60.2168 C.2     1  ZINC000572148596    0.0400
     28 C28        -9.6495   -1.0044   61.2072 C.2     1  ZINC000572148596   -0.2500
     29 S29       -11.2345   -1.4991   60.6179 S.3     1  ZINC000572148596    0.1400
     30 H30       -12.7922   -0.8706   57.9660 H       1  ZINC000572148596    0.0800
     31 H31       -13.3319   -2.3567   57.1483 H       1  ZINC000572148596    0.0700
     32 H32       -13.2305   -2.3049   58.9246 H       1  ZINC000572148596    0.0800
     33 H33        -8.7818    1.5529   56.2233 H       1  ZINC000572148596    0.1500
     34 H34        -7.6021    3.3208   54.9709 H       1  ZINC000572148596    0.1500
     35 H35        -6.5191    2.0235   50.7602 H       1  ZINC000572148596    0.0600
     36 H36        -8.0793    2.8704   50.6194 H       1  ZINC000572148596    0.1000
     37 H37        -7.1772    5.6282   51.4902 H       1  ZINC000572148596    0.0700
     38 H38        -6.6513    6.2120   49.8930 H       1  ZINC000572148596    0.0600
     39 H39        -8.1570    5.2750   50.0466 H       1  ZINC000572148596    0.0700
     40 H40        -3.0270    5.4597   52.0012 H       1  ZINC000572148596    0.0700
     41 H41        -3.4632    4.8593   53.6190 H       1  ZINC000572148596    0.0700
     42 H42        -2.9901    3.7131   52.3420 H       1  ZINC000572148596    0.0600
     43 H43        -5.6520    3.6256   53.9448 H       1  ZINC000572148596    0.1000
     44 H44        -5.0936    2.4670   52.7131 H       1  ZINC000572148596    0.0600
     45 H45        -9.0191   -0.7035   52.5761 H       1  ZINC000572148596    0.1700
     46 H46        -7.7198   -0.9465   60.3199 H       1  ZINC000572148596    0.1800
     47 H47        -9.4288   -0.6233   62.1934 H       1  ZINC000572148596    0.1800
@<TRIPOS>BOND
     1     1     2    1
     2     1    30    1
     3     1    31    1
     4     1    32    1
     5     2     3    1
     6     2     4    1
     7     2    25    1
     8     4    24    1
     9     4     5    2
    10     5     6    1
    11     6     7    1
    12     7     8    1
    13     7    24    2
    14     8    23   ar
    15     8     9   ar
    16     9    10   ar
    17     9    33    1
    18    10    11   ar
    19    10    34    1
    20    11    12    1
    21    11    22   ar
    22    12    21    1
    23    12    13    1
    24    13    14    1
    25    13    35    1
    26    13    36    1
    27    14    15    1
    28    14    16    1
    29    14    17    1
    30    16    37    1
    31    16    38    1
    32    16    39    1
    33    17    18    1
    34    18    19    1
    35    18    20    1
    36    18    21    1
    37    20    40    1
    38    20    41    1
    39    20    42    1
    40    21    43    1
    41    21    44    1
    42    22    23   ar
    43    23    45    1
    44    25    29    1
    45    25    26    2
    46    26    27    1
    47    27    28    2
    48    27    46    1
    49    28    29    1
    50    28    47    1
@<TRIPOS>SUBSTRUCTURE
     1 ZINC000572148596        1 TEMP              0 ****  ****    0 ROOT


##########                                Name:    ZINC000821442454
##########                DOCK_Rotatable_Bonds:                   6
##########                         Heavy_Atoms:                  26
##########                    Molecular_Weight:             398.873
##########                DOCK_Rotatable_Bonds:                   6
##########                       Formal_Charge:          -0.0399996
##########                     HBond_Acceptors:                  11
##########                        HBond_Donors:                   2
##########                         Heavy_Atoms:                  26
##########                          Grid_Score:          -31.540075
##########                     Grid_vdw_energy:          -30.255651
##########                      Grid_es_energy:           -1.284424
##########           Internal_energy_repulsive:            9.992725

@<TRIPOS>MOLECULE
ZINC000821442454
 45 47 1 0 0
SMALL
USER_CHARGES


@<TRIPOS>ATOM
      1 C1        -12.3848   -0.3386   53.1521 C.3     1  ZINC000821442454   -0.1500
      2 C2        -11.1992   -0.6318   52.2305 C.3     1  ZINC000821442454   -0.6300
      3 S3         -9.7241   -0.9683   53.2312 S.o2    1  ZINC000821442454    2.6000
      4 O4        -10.0007   -1.9619   54.2086 O.2     1  ZINC000821442454   -0.9500
      5 O5         -8.5705   -1.0533   52.4059 O.2     1  ZINC000821442454   -0.9500
      6 N6         -9.4963    0.4167   54.1101 N.am    1  ZINC000821442454   -1.0000
      7 C7         -9.2688    1.7021   53.4358 C.3     1  ZINC000821442454    0.1100
      8 C8         -7.9833    2.3272   53.9870 C.3     1  ZINC000821442454   -0.1300
      9 C9         -8.0814    2.4255   55.5110 C.3     1  ZINC000821442454   -0.1100
     10 C10        -8.2301    1.0234   56.1058 C.3     1  ZINC000821442454   -0.1200
     11 H11        -7.3754    0.4124   55.8155 H       1  ZINC000821442454    0.1100
     12 C12        -8.2933    1.1185   57.6085 C.2     1  ZINC000821442454    0.5300
     13 O13        -7.5789    1.9021   58.1971 O.2     1  ZINC000821442454   -0.5100
     14 N14        -9.1437    0.3327   58.2983 N.am    1  ZINC000821442454   -0.6700
     15 C15        -9.2024    0.4210   59.6930 C.ar    1  ZINC000821442454    0.1800
     16 C16        -8.3509   -0.3508   60.4733 C.ar    1  ZINC000821442454   -0.1200
     17 C17        -8.4065   -0.2651   61.8487 C.ar    1  ZINC000821442454   -0.0500
     18 C18        -9.3177    0.5963   62.4562 C.ar    1  ZINC000821442454   -0.0300
     19 C19        -9.3787    0.6901   63.9362 C.2     1  ZINC000821442454    0.2200
     20 N20       -10.3139    1.2853   64.6496 N.2     1  ZINC000821442454   -0.2900
     21 N21       -10.0084    1.1470   65.8940 N.pl3   1  ZINC000821442454   -0.2200
     22 N22        -8.9097    0.4832   65.9916 N.2     1  ZINC000821442454   -0.0400
     23 N23        -8.4965    0.1809   64.8078 N.2     1  ZINC000821442454   -0.2700
     24 C24       -10.1717    1.3703   61.6723 C.ar    1  ZINC000821442454   -0.0500
     25 C25       -10.1093    1.2857   60.2967 C.ar    1  ZINC000821442454   -0.0800
     26 Cl26      -11.1723    2.2491   59.3192 Cl      1  ZINC000821442454   -0.0500
     27 C27        -9.5240    0.3845   55.5787 C.3     1  ZINC000821442454    0.1400
     28 H28       -12.5692   -1.2011   53.7925 H       1  ZINC000821442454    0.0700
     29 H29       -12.1585    0.5306   53.7697 H       1  ZINC000821442454    0.0700
     30 H30       -13.2711   -0.1364   52.5508 H       1  ZINC000821442454    0.0800
     31 H31       -11.4255   -1.5010   51.6129 H       1  ZINC000821442454    0.1300
     32 H32       -11.0148    0.2309   51.5902 H       1  ZINC000821442454    0.1300
     33 H33        -9.1649    1.5388   52.3631 H       1  ZINC000821442454    0.1000
     34 H34       -10.1100    2.3687   53.6263 H       1  ZINC000821442454    0.0700
     35 H35        -7.1309    1.7040   53.7167 H       1  ZINC000821442454    0.0700
     36 H36        -7.8539    3.3242   53.5656 H       1  ZINC000821442454    0.0800
     37 H37        -7.1781    2.8926   55.9037 H       1  ZINC000821442454    0.0700
     38 H38        -8.9484    3.0284   55.7810 H       1  ZINC000821442454    0.0800
     39 H39        -9.7151   -0.2940   57.8275 H       1  ZINC000821442454    0.4200
     40 H40        -7.6448   -1.0188   60.0025 H       1  ZINC000821442454    0.1600
     41 H41        -7.7444   -0.8658   62.4546 H       1  ZINC000821442454    0.1500
     42 H42       -10.5251    1.4896   66.6400 H       1  ZINC000821442454    0.4800
     43 H43       -10.8787    2.0386   62.1411 H       1  ZINC000821442454    0.1500
     44 H44       -10.3840    0.9446   55.9457 H       1  ZINC000821442454    0.0800
     45 H45        -9.5862   -0.6491   55.9192 H       1  ZINC000821442454    0.1000
@<TRIPOS>BOND
     1     1     2    1
     2     1    28    1
     3     1    29    1
     4     1    30    1
     5     2     3    1
     6     2    31    1
     7     2    32    1
     8     3     4    2
     9     3     5    2
    10     3     6   am
    11     6    27    1
    12     6     7    1
    13     7     8    1
    14     7    33    1
    15     7    34    1
    16     8     9    1
    17     8    35    1
    18     8    36    1
    19     9    10    1
    20     9    37    1
    21     9    38    1
    22    10    11    1
    23    10    12    1
    24    10    27    1
    25    12    13    2
    26    12    14   am
    27    14    15    1
    28    14    39    1
    29    15    25   ar
    30    15    16   ar
    31    16    17   ar
    32    16    40    1
    33    17    18   ar
    34    17    41    1
    35    18    19    1
    36    18    24   ar
    37    19    23    1
    38    19    20    2
    39    20    21    1
    40    21    22    1
    41    21    42    1
    42    22    23    2
    43    24    25   ar
    44    24    43    1
    45    25    26    1
    46    27    44    1
    47    27    45    1
@<TRIPOS>SUBSTRUCTURE
     1 ZINC000821442454        1 TEMP              0 ****  ****    0 ROOT


##########                                Name:    ZINC000461678839
##########                DOCK_Rotatable_Bonds:                   6
##########                         Heavy_Atoms:                  28
##########                    Molecular_Weight:             404.939
##########                DOCK_Rotatable_Bonds:                   6
##########                       Formal_Charge:          -0.0200003
##########                     HBond_Acceptors:                   7
##########                        HBond_Donors:                   0
##########                         Heavy_Atoms:                  28
##########                          Grid_Score:          -31.536234
##########                     Grid_vdw_energy:          -31.237532
##########                      Grid_es_energy:           -0.298703
##########           Internal_energy_repulsive:           16.942881

@<TRIPOS>MOLECULE
ZINC000461678839
 57 60 1 0 0
SMALL
USER_CHARGES


@<TRIPOS>ATOM
      1 C1         -9.3036    0.2678   65.5881 C.3     1  ZINC000461678839   -0.1500
      2 C2         -9.1552    0.7772   64.1530 C.3     1  ZINC000461678839   -0.0900
      3 H3         -8.3203    1.4765   64.1088 H       1  ZINC000461678839    0.0700
      4 C4        -10.4508    1.5124   63.7426 C.3     1  ZINC000461678839   -0.1100
      5 C5        -10.1624    2.3734   62.5418 C.3     1  ZINC000461678839   -0.1200
      6 C6        -10.4294    1.6521   61.2086 C.3     1  ZINC000461678839    0.0600
      7 N7         -9.9522    0.2518   61.1940 N.3     1  ZINC000461678839   -0.4600
      8 C8         -9.9645   -0.2638   59.9077 C.2     1  ZINC000461678839    0.3700
      9 N9         -9.2372    0.1471   58.8958 N.2     1  ZINC000461678839   -0.3100
     10 N10        -9.5032   -0.5558   57.8531 N.2     1  ZINC000461678839   -0.2500
     11 C11       -10.4085   -1.4492   58.1355 C.2     1  ZINC000461678839    0.1700
     12 C12       -10.9882   -2.4650   57.1850 C.3     1  ZINC000461678839    0.1500
     13 O13       -10.2967   -2.3978   55.9363 O.3     1  ZINC000461678839   -0.3100
     14 C14       -10.6965   -1.4384   55.0604 C.ar    1  ZINC000461678839    0.1400
     15 C15       -11.5712   -0.4434   55.4718 C.ar    1  ZINC000461678839   -0.2000
     16 C16       -11.9765    0.5308   54.5801 C.ar    1  ZINC000461678839   -0.0700
     17 C17       -11.5109    0.5143   53.2773 C.ar    1  ZINC000461678839   -0.0700
     18 Cl18      -12.0220    1.7392   52.1584 Cl      1  ZINC000461678839   -0.0700
     19 C19       -10.6380   -0.4770   52.8652 C.ar    1  ZINC000461678839   -0.0700
     20 C20       -10.2260   -1.4496   53.7555 C.ar    1  ZINC000461678839   -0.1400
     21 N21       -10.7309   -1.2984   59.4558 N.pl3   1  ZINC000461678839   -0.4600
     22 C22       -11.7035   -2.0798   60.2236 C.3     1  ZINC000461678839    0.1200
     23 C23       -13.1197   -1.6232   59.8675 C.3     1  ZINC000461678839   -0.1400
     24 H24       -13.2049   -1.4491   58.7948 H       1  ZINC000461678839    0.0900
     25 C25       -13.4905   -0.3432   60.6552 C.3     1  ZINC000461678839   -0.1500
     26 C26       -14.9662   -0.6165   61.0426 C.3     1  ZINC000461678839    0.0500
     27 O27       -14.9847   -2.0332   61.3206 O.3     1  ZINC000461678839   -0.3700
     28 C28       -14.1550   -2.6674   60.3284 C.3     1  ZINC000461678839    0.0400
     29 C29        -8.6593    0.0743   61.8100 C.3     1  ZINC000461678839    0.0700
     30 C30        -8.8768   -0.3526   63.2734 C.3     1  ZINC000461678839   -0.1100
     31 H31        -8.3860   -0.2361   65.8915 H       1  ZINC000461678839    0.0500
     32 H32        -9.4934    1.1093   66.2545 H       1  ZINC000461678839    0.0500
     33 H33       -10.1373   -0.4326   65.6406 H       1  ZINC000461678839    0.0600
     34 H34       -11.2210    0.7828   63.4923 H       1  ZINC000461678839    0.0700
     35 H35       -10.7924    2.1384   64.5670 H       1  ZINC000461678839    0.0700
     36 H36       -10.7881    3.2646   62.5904 H       1  ZINC000461678839    0.0800
     37 H37        -9.1166    2.6792   62.5722 H       1  ZINC000461678839    0.0700
     38 H38       -11.5024    1.6578   61.0167 H       1  ZINC000461678839    0.0700
     39 H39        -9.9308    2.1996   60.4088 H       1  ZINC000461678839    0.0500
     40 H40       -10.8777   -3.4632   57.6083 H       1  ZINC000461678839    0.0800
     41 H41       -12.0455   -2.2523   57.0268 H       1  ZINC000461678839    0.1000
     42 H42       -11.9355   -0.4306   56.4884 H       1  ZINC000461678839    0.1400
     43 H43       -12.6575    1.3056   54.9000 H       1  ZINC000461678839    0.1400
     44 H44       -10.2753   -0.4881   51.8480 H       1  ZINC000461678839    0.1400
     45 H45        -9.5446   -2.2233   53.4335 H       1  ZINC000461678839    0.1400
     46 H46       -11.5913   -3.1370   59.9831 H       1  ZINC000461678839    0.1100
     47 H47       -11.5304   -1.9293   61.2892 H       1  ZINC000461678839    0.1000
     48 H48       -12.8680   -0.2393   61.5439 H       1  ZINC000461678839    0.0800
     49 H49       -13.4120    0.5401   60.0215 H       1  ZINC000461678839    0.0900
     50 H50       -15.2416   -0.0475   61.9306 H       1  ZINC000461678839    0.1000
     51 H51       -15.6313   -0.3797   60.2121 H       1  ZINC000461678839    0.0600
     52 H52       -14.7655   -2.9862   59.4835 H       1  ZINC000461678839    0.0500
     53 H53       -13.6455   -3.5263   60.7652 H       1  ZINC000461678839    0.1100
     54 H54        -8.1030   -0.6989   61.2801 H       1  ZINC000461678839    0.0900
     55 H55        -8.1057    1.0127   61.7787 H       1  ZINC000461678839    0.0600
     56 H56        -7.9806   -0.8611   63.6286 H       1  ZINC000461678839    0.0700
     57 H57        -9.7144   -1.0488   63.3163 H       1  ZINC000461678839    0.0700
@<TRIPOS>BOND
     1     1     2    1
     2     1    31    1
     3     1    32    1
     4     1    33    1
     5     2     3    1
     6     2    30    1
     7     2     4    1
     8     4     5    1
     9     4    34    1
    10     4    35    1
    11     5     6    1
    12     5    36    1
    13     5    37    1
    14     6     7    1
    15     6    38    1
    16     6    39    1
    17     7     8    1
    18     7    29    1
    19     8    21    1
    20     8     9    2
    21     9    10    1
    22    10    11    2
    23    11    12    1
    24    11    21    1
    25    12    13    1
    26    12    40    1
    27    12    41    1
    28    13    14    1
    29    14    20   ar
    30    14    15   ar
    31    15    16   ar
    32    15    42    1
    33    16    17   ar
    34    16    43    1
    35    17    18    1
    36    17    19   ar
    37    19    20   ar
    38    19    44    1
    39    20    45    1
    40    21    22    1
    41    22    23    1
    42    22    46    1
    43    22    47    1
    44    23    24    1
    45    23    28    1
    46    23    25    1
    47    25    26    1
    48    25    48    1
    49    25    49    1
    50    26    27    1
    51    26    50    1
    52    26    51    1
    53    27    28    1
    54    28    52    1
    55    28    53    1
    56    29    30    1
    57    29    54    1
    58    29    55    1
    59    30    56    1
    60    30    57    1
@<TRIPOS>SUBSTRUCTURE
     1 ZINC000461678839        1 TEMP              0 ****  ****    0 ROOT


##########                                Name:    ZINC000457806032
##########                DOCK_Rotatable_Bonds:                   8
##########                         Heavy_Atoms:                  24
##########                    Molecular_Weight:             387.911
##########                DOCK_Rotatable_Bonds:                   8
##########                       Formal_Charge:        -1.49012e-07
##########                     HBond_Acceptors:                   9
##########                        HBond_Donors:                   2
##########                         Heavy_Atoms:                  24
##########                          Grid_Score:          -31.507393
##########                     Grid_vdw_energy:          -30.851667
##########                      Grid_es_energy:           -0.655726
##########           Internal_energy_repulsive:            4.718534

@<TRIPOS>MOLECULE
ZINC000457806032
 42 43 1 0 0
SMALL
USER_CHARGES


@<TRIPOS>ATOM
      1 C1        -12.6539    0.1251   53.8532 C.3     1  ZINC000457806032    0.0800
      2 N2        -11.8176   -0.3494   52.7479 N.am    1  ZINC000457806032   -1.0100
      3 C3        -12.3763   -0.4498   51.3974 C.3     1  ZINC000457806032    0.0900
      4 S4        -10.2406   -0.7720   53.0251 S.o2    1  ZINC000457806032    2.7900
      5 O5        -10.2595   -1.7214   54.0822 O.2     1  ZINC000457806032   -0.9700
      6 O6         -9.6666   -1.0372   51.7525 O.2     1  ZINC000457806032   -0.9700
      7 N7         -9.4700    0.5698   53.6152 N.am    1  ZINC000457806032   -1.1300
      8 C8         -8.0472    0.5058   53.9584 C.3     1  ZINC000457806032    0.1100
      9 C9         -7.7763    1.3902   55.1771 C.3     1  ZINC000457806032    0.1100
     10 N10        -8.4115    0.8013   56.3587 N.am    1  ZINC000457806032   -0.7300
     11 C11        -8.1426    1.2936   57.5841 C.2     1  ZINC000457806032    0.5800
     12 O12        -7.3736    2.2277   57.7090 O.2     1  ZINC000457806032   -0.5300
     13 C13        -8.7796    0.7006   58.7718 C.2     1  ZINC000457806032   -0.1500
     14 C14        -9.7124   -0.2894   58.6970 C.2     1  ZINC000457806032   -0.2200
     15 S15       -10.2360   -0.7375   60.2576 S.3     1  ZINC000457806032    0.2400
     16 C16        -9.1717    0.4374   61.0147 C.2     1  ZINC000457806032   -0.1700
     17 C17        -9.0534    0.6604   62.4719 C.ar    1  ZINC000457806032   -0.0100
     18 C18        -8.8951    1.9534   62.9720 C.ar    1  ZINC000457806032   -0.0900
     19 C19        -8.7852    2.1554   64.3322 C.ar    1  ZINC000457806032   -0.1000
     20 C20        -8.8311    1.0779   65.2007 C.ar    1  ZINC000457806032   -0.0300
     21 Cl21       -8.6916    1.3396   66.9111 Cl      1  ZINC000457806032   -0.0600
     22 C22        -8.9884   -0.2074   64.7103 C.ar    1  ZINC000457806032   -0.1000
     23 C23        -9.1051   -0.4209   63.3524 C.ar    1  ZINC000457806032   -0.1000
     24 C24        -8.4773    1.0987   60.0751 C.2     1  ZINC000457806032   -0.0700
     25 H25       -13.1542   -0.7232   54.3204 H       1  ZINC000457806032    0.0600
     26 H26       -12.0296    0.6299   54.5905 H       1  ZINC000457806032    0.0800
     27 H27       -13.4002    0.8216   53.4711 H       1  ZINC000457806032    0.0800
     28 H28       -12.2221    0.4911   50.8694 H       1  ZINC000457806032    0.0600
     29 H29       -11.8787   -1.2554   50.8573 H       1  ZINC000457806032    0.0700
     30 H30       -13.4439   -0.6602   51.4606 H       1  ZINC000457806032    0.0700
     31 H31        -9.9607    1.3981   53.7334 H       1  ZINC000457806032    0.4200
     32 H32        -7.7752   -0.5242   54.1893 H       1  ZINC000457806032    0.0700
     33 H33        -7.4537    0.8580   53.1147 H       1  ZINC000457806032    0.0900
     34 H34        -6.7012    1.4634   55.3411 H       1  ZINC000457806032    0.0800
     35 H35        -8.1858    2.3851   55.0023 H       1  ZINC000457806032    0.0800
     36 H36        -9.0257    0.0572   56.2590 H       1  ZINC000457806032    0.4000
     37 H37       -10.0704   -0.7293   57.7779 H       1  ZINC000457806032    0.1700
     38 H38        -8.8585    2.7946   62.2955 H       1  ZINC000457806032    0.1400
     39 H39        -8.6628    3.1557   64.7204 H       1  ZINC000457806032    0.1400
     40 H40        -9.0235   -1.0439   65.3924 H       1  ZINC000457806032    0.1400
     41 H41        -9.2281   -1.4239   62.9710 H       1  ZINC000457806032    0.1300
     42 H42        -7.7588    1.8714   60.3055 H       1  ZINC000457806032    0.1600
@<TRIPOS>BOND
     1     1     2    1
     2     1    25    1
     3     1    26    1
     4     1    27    1
     5     2     3    1
     6     2     4   am
     7     3    28    1
     8     3    29    1
     9     3    30    1
    10     4     5    2
    11     4     6    2
    12     4     7   am
    13     7     8    1
    14     7    31    1
    15     8     9    1
    16     8    32    1
    17     8    33    1
    18     9    10    1
    19     9    34    1
    20     9    35    1
    21    10    11   am
    22    10    36    1
    23    11    12    2
    24    11    13    1
    25    13    24    1
    26    13    14    2
    27    14    15    1
    28    14    37    1
    29    15    16    1
    30    16    17    1
    31    16    24    2
    32    17    23   ar
    33    17    18   ar
    34    18    19   ar
    35    18    38    1
    36    19    20   ar
    37    19    39    1
    38    20    21    1
    39    20    22   ar
    40    22    23   ar
    41    22    40    1
    42    23    41    1
    43    24    42    1
@<TRIPOS>SUBSTRUCTURE
     1 ZINC000457806032        1 TEMP              0 ****  ****    0 ROOT


##########                                Name:    ZINC000504243286
##########                DOCK_Rotatable_Bonds:                   7
##########                         Heavy_Atoms:                  29
##########                    Molecular_Weight:             408.337
##########                DOCK_Rotatable_Bonds:                   7
##########                       Formal_Charge:           0.0299994
##########                     HBond_Acceptors:                  11
##########                        HBond_Donors:                   3
##########                         Heavy_Atoms:                  29
##########                          Grid_Score:          -31.499228
##########                     Grid_vdw_energy:          -29.582924
##########                      Grid_es_energy:           -1.916303
##########           Internal_energy_repulsive:           12.737350

@<TRIPOS>MOLECULE
ZINC000504243286
 44 46 1 0 0
SMALL
USER_CHARGES


@<TRIPOS>ATOM
      1 O1         -8.4097    3.5765   56.9464 O.2     1  ZINC000504243286   -0.5200
      2 C2         -7.2633    3.2774   57.2062 C.2     1  ZINC000504243286    0.5200
      3 C3         -6.6106    3.8095   58.4560 C.3     1  ZINC000504243286   -0.1600
      4 C4         -7.6258    3.8107   59.6006 C.3     1  ZINC000504243286    0.1300
      5 N5         -8.0914    2.4427   59.8418 N.pl3   1  ZINC000504243286   -0.7200
      6 C6         -8.6068    2.0905   61.0913 C.ar    1  ZINC000504243286    0.3100
      7 C7         -8.7954    3.0623   62.0654 C.ar    1  ZINC000504243286   -0.1900
      8 C8         -9.3057    2.7106   63.2999 C.ar    1  ZINC000504243286    0.0200
      9 C9         -9.6287    1.3928   63.5662 C.ar    1  ZINC000504243286   -0.2400
     10 C10       -10.1858    1.0130   64.9140 C.3     1  ZINC000504243286    0.5200
     11 F11        -9.6742    1.8750   65.8898 F       1  ZINC000504243286   -0.1700
     12 F12       -11.5808    1.1143   64.8874 F       1  ZINC000504243286   -0.1700
     13 F13        -9.8195   -0.3030   65.2159 F       1  ZINC000504243286   -0.1700
     14 C14        -9.4422    0.4227   62.5984 C.ar    1  ZINC000504243286    0.0400
     15 C15        -8.9374    0.7682   61.3604 C.ar    1  ZINC000504243286   -0.1200
     16 N16        -8.7381   -0.2707   60.3254 N.pl3   1  ZINC000504243286    0.0400
     17 O17        -8.9629   -0.0161   59.1557 O.2     1  ZINC000504243286   -0.1700
     18 O18        -8.3493   -1.3804   60.6431 O.2     1  ZINC000504243286   -0.1400
     19 N19        -6.5751    2.4647   56.3801 N.am    1  ZINC000504243286   -0.6700
     20 C20        -7.1818    1.9702   55.2185 C.ar    1  ZINC000504243286    0.1200
     21 C21        -6.8562    2.5054   53.9794 C.ar    1  ZINC000504243286   -0.1000
     22 C22        -7.4514    2.0204   52.8339 C.ar    1  ZINC000504243286   -0.1200
     23 C23        -8.3853    0.9891   52.9114 C.ar    1  ZINC000504243286    0.1300
     24 N24        -9.1128    0.3406   51.9105 N.am    1  ZINC000504243286   -0.6600
     25 C25        -9.9203   -0.6124   52.4055 C.2     1  ZINC000504243286    0.5300
     26 O26       -10.6623   -1.3300   51.7686 O.2     1  ZINC000504243286   -0.5000
     27 C27        -9.7300   -0.6226   53.9073 C.3     1  ZINC000504243286   -0.1200
     28 C28        -8.7049    0.4599   54.1558 C.ar    1  ZINC000504243286   -0.1200
     29 C29        -8.1088    0.9373   55.3002 C.ar    1  ZINC000504243286   -0.0600
     30 H30        -5.7642    3.1762   58.7216 H       1  ZINC000504243286    0.1100
     31 H31        -6.2617    4.8268   58.2787 H       1  ZINC000504243286    0.1100
     32 H32        -7.1547    4.1986   60.5037 H       1  ZINC000504243286    0.0800
     33 H33        -8.4738    4.4413   59.3335 H       1  ZINC000504243286    0.0900
     34 H34        -8.0418    1.7816   59.1338 H       1  ZINC000504243286    0.4100
     35 H35        -8.5430    4.0917   61.8582 H       1  ZINC000504243286    0.1600
     36 H36        -9.4523    3.4657   64.0580 H       1  ZINC000504243286    0.1600
     37 H37        -9.6955   -0.6058   62.8097 H       1  ZINC000504243286    0.1600
     38 H38        -5.6597    2.2223   56.5901 H       1  ZINC000504243286    0.4200
     39 H39        -6.1337    3.3053   53.9124 H       1  ZINC000504243286    0.1400
     40 H40        -7.1931    2.4415   51.8735 H       1  ZINC000504243286    0.1300
     41 H41        -9.0430    0.5537   50.9668 H       1  ZINC000504243286    0.4100
     42 H42       -10.6662   -0.3851   54.4124 H       1  ZINC000504243286    0.1300
     43 H43        -9.3516   -1.5900   54.2375 H       1  ZINC000504243286    0.1300
     44 H44        -8.3631    0.5131   56.2603 H       1  ZINC000504243286    0.1500
@<TRIPOS>BOND
     1     1     2    2
     2     2     3    1
     3     2    19   am
     4     3     4    1
     5     3    30    1
     6     3    31    1
     7     4     5    1
     8     4    32    1
     9     4    33    1
    10     5     6    1
    11     5    34    1
    12     6    15   ar
    13     6     7   ar
    14     7     8   ar
    15     7    35    1
    16     8     9   ar
    17     8    36    1
    18     9    10    1
    19     9    14   ar
    20    10    11    1
    21    10    12    1
    22    10    13    1
    23    14    15   ar
    24    14    37    1
    25    15    16    1
    26    16    17    2
    27    16    18    2
    28    19    20    1
    29    19    38    1
    30    20    29   ar
    31    20    21   ar
    32    21    22   ar
    33    21    39    1
    34    22    23   ar
    35    22    40    1
    36    23    28   ar
    37    23    24    1
    38    24    25   am
    39    24    41    1
    40    25    26    2
    41    25    27    1
    42    27    28    1
    43    27    42    1
    44    27    43    1
    45    28    29   ar
    46    29    44    1
@<TRIPOS>SUBSTRUCTURE
     1 ZINC000504243286        1 TEMP              0 ****  ****    0 ROOT


##########                                Name:    ZINC000866717058
##########                DOCK_Rotatable_Bonds:                   7
##########                         Heavy_Atoms:                  25
##########                    Molecular_Weight:             380.388
##########                DOCK_Rotatable_Bonds:                   7
##########                       Formal_Charge:                0.04
##########                     HBond_Acceptors:                  10
##########                        HBond_Donors:                   1
##########                         Heavy_Atoms:                  25
##########                          Grid_Score:          -31.465837
##########                     Grid_vdw_energy:          -29.783113
##########                      Grid_es_energy:           -1.682724
##########           Internal_energy_repulsive:            9.362266

@<TRIPOS>MOLECULE
ZINC000866717058
 44 45 1 0 0
SMALL
USER_CHARGES


@<TRIPOS>ATOM
      1 C1        -10.3305   -1.9513   59.2516 C.3     1  ZINC000866717058   -0.1100
      2 C2        -10.0136   -0.5304   58.8626 C.ar    1  ZINC000866717058    0.2400
      3 N3         -9.9668   -0.1979   57.5898 N.ar    1  ZINC000866717058   -0.5500
      4 C4         -9.6924    1.0380   57.2009 C.ar    1  ZINC000866717058    0.3500
      5 O5         -9.6566    1.3294   55.8781 O.3     1  ZINC000866717058   -0.2800
      6 C6         -8.5223    0.8669   55.1424 C.3     1  ZINC000866717058    0.0500
      7 H7         -7.8074    0.4094   55.8263 H       1  ZINC000866717058    0.1300
      8 C8         -8.9722   -0.1671   54.1082 C.3     1  ZINC000866717058   -0.1700
      9 C9         -7.8612    2.0478   54.4287 C.3     1  ZINC000866717058    0.4600
     10 F10        -6.5604    1.6964   54.0524 F       1  ZINC000866717058   -0.1700
     11 F11        -8.6029    2.3787   53.2895 F       1  ZINC000866717058   -0.1700
     12 F12        -7.8159    3.1482   55.2915 F       1  ZINC000866717058   -0.1700
     13 C13        -9.4407    2.0415   58.1311 C.ar    1  ZINC000866717058   -0.1900
     14 C14        -9.4789    1.7389   59.4769 C.ar    1  ZINC000866717058    0.0000
     15 C15        -9.7781    0.4219   59.8553 C.ar    1  ZINC000866717058   -0.2300
     16 C16        -9.8319    0.0462   61.2817 C.2     1  ZINC000866717058    0.5800
     17 O17       -10.9063   -0.1120   61.8286 O.2     1  ZINC000866717058   -0.5200
     18 N18        -8.6901   -0.1215   61.9781 N.am    1  ZINC000866717058   -0.7400
     19 C19        -8.7437   -0.4927   63.3943 C.3     1  ZINC000866717058    0.1400
     20 C20        -8.5190    0.7512   64.2563 C.3     1  ZINC000866717058   -0.5700
     21 H21        -7.6736    1.3302   63.8844 H       1  ZINC000866717058    0.1500
     22 C22        -9.8008    1.6219   64.3107 C.3     1  ZINC000866717058   -0.1100
     23 C23        -9.6594    2.5372   65.5396 C.3     1  ZINC000866717058   -0.1200
     24 C24        -9.2082    1.6844   66.7420 C.3     1  ZINC000866717058   -0.5900
     25 S25        -8.2691    0.2894   66.0123 S.o2    1  ZINC000866717058    2.3700
     26 O26        -8.9523   -0.9280   66.2774 O.2     1  ZINC000866717058   -0.9200
     27 O27        -6.8947    0.4199   66.3487 O.2     1  ZINC000866717058   -0.9300
     28 H28       -11.3924   -2.0367   59.4823 H       1  ZINC000866717058    0.0900
     29 H29       -10.0833   -2.6180   58.4255 H       1  ZINC000866717058    0.0700
     30 H30        -9.7450   -2.2271   60.1288 H       1  ZINC000866717058    0.1100
     31 H31        -8.1070   -0.5198   53.5470 H       1  ZINC000866717058    0.0900
     32 H32        -9.4431   -1.0083   54.6166 H       1  ZINC000866717058    0.0900
     33 H33        -9.6870    0.2905   53.4242 H       1  ZINC000866717058    0.0800
     34 H34        -9.2175    3.0461   57.8036 H       1  ZINC000866717058    0.1600
     35 H35        -9.2871    2.4982   60.2206 H       1  ZINC000866717058    0.1500
     36 H36        -7.8330    0.0035   61.5415 H       1  ZINC000866717058    0.4000
     37 H37        -9.7203   -0.9203   63.6211 H       1  ZINC000866717058    0.1000
     38 H38        -7.9672   -1.2273   63.6070 H       1  ZINC000866717058    0.1000
     39 H39        -9.8826    2.2228   63.4051 H       1  ZINC000866717058    0.1100
     40 H40       -10.6796    0.9862   64.4181 H       1  ZINC000866717058    0.0900
     41 H41        -8.9162    3.3088   65.3383 H       1  ZINC000866717058    0.0900
     42 H42       -10.6189    3.0043   65.7611 H       1  ZINC000866717058    0.1000
     43 H43        -8.5641    2.2680   67.3997 H       1  ZINC000866717058    0.1400
     44 H44       -10.0747    1.3146   67.2902 H       1  ZINC000866717058    0.1400
@<TRIPOS>BOND
     1     1     2    1
     2     1    28    1
     3     1    29    1
     4     1    30    1
     5     2    15   ar
     6     2     3   ar
     7     3     4   ar
     8     4     5    1
     9     4    13   ar
    10     5     6    1
    11     6     7    1
    12     6     8    1
    13     6     9    1
    14     8    31    1
    15     8    32    1
    16     8    33    1
    17     9    10    1
    18     9    11    1
    19     9    12    1
    20    13    14   ar
    21    13    34    1
    22    14    15   ar
    23    14    35    1
    24    15    16    1
    25    16    17    2
    26    16    18   am
    27    18    19    1
    28    18    36    1
    29    19    20    1
    30    19    37    1
    31    19    38    1
    32    20    21    1
    33    20    25    1
    34    20    22    1
    35    22    23    1
    36    22    39    1
    37    22    40    1
    38    23    24    1
    39    23    41    1
    40    23    42    1
    41    24    25    1
    42    24    43    1
    43    24    44    1
    44    25    26    2
    45    25    27    2
@<TRIPOS>SUBSTRUCTURE
     1 ZINC000866717058        1 TEMP              0 ****  ****    0 ROOT


##########                                Name:    ZINC000489403631
##########                DOCK_Rotatable_Bonds:                   7
##########                         Heavy_Atoms:                  28
##########                    Molecular_Weight:             381.391
##########                DOCK_Rotatable_Bonds:                   7
##########                       Formal_Charge:          -0.0300003
##########                     HBond_Acceptors:                   9
##########                        HBond_Donors:                   1
##########                         Heavy_Atoms:                  28
##########                          Grid_Score:          -31.452692
##########                     Grid_vdw_energy:          -30.835903
##########                      Grid_es_energy:           -0.616789
##########           Internal_energy_repulsive:           11.396146

@<TRIPOS>MOLECULE
ZINC000489403631
 47 49 1 0 0
SMALL
USER_CHARGES


@<TRIPOS>ATOM
      1 C1         -8.5605   -0.9001   52.9976 C.3     1  ZINC000489403631   -0.1100
      2 C2         -8.5268    0.0709   54.1494 C.ar    1  ZINC000489403631   -0.0800
      3 C3         -9.2072   -0.2174   55.3155 C.ar    1  ZINC000489403631   -0.0900
      4 C4         -9.1760    0.6776   56.3769 C.ar    1  ZINC000489403631    0.1200
      5 N5         -9.8659    0.3852   57.5606 N.am    1  ZINC000489403631   -0.6600
      6 C6         -9.1838    0.0395   58.6703 C.2     1  ZINC000489403631    0.5100
      7 O7         -7.9726   -0.0185   58.6444 O.2     1  ZINC000489403631   -0.4600
      8 C8         -9.9261   -0.2750   59.9437 C.3     1  ZINC000489403631    0.1700
      9 C9         -8.9624   -0.8993   60.9548 C.3     1  ZINC000489403631   -0.1700
     10 C10       -10.5107    1.0139   60.5249 C.3     1  ZINC000489403631   -0.1700
     11 N11       -11.0106   -1.2171   59.6567 N.pl3   1  ZINC000489403631   -0.3400
     12 C12       -12.1664   -1.3304   60.3439 C.2     1  ZINC000489403631    0.1500
     13 C13       -12.8965   -2.3113   59.7643 C.2     1  ZINC000489403631   -0.1900
     14 N14       -14.2364   -2.7699   60.1950 N.pl3   1  ZINC000489403631    0.0700
     15 O15       -14.7793   -3.6934   59.6156 O.2     1  ZINC000489403631   -0.1700
     16 O16       -14.7959   -2.2235   61.1288 O.2     1  ZINC000489403631   -0.1600
     17 C17       -12.1616   -2.8148   58.6860 C.2     1  ZINC000489403631    0.1000
     18 N18       -11.0336   -2.1555   58.6169 N.2     1  ZINC000489403631   -0.2200
     19 C19        -8.4604    1.8620   56.2646 C.ar    1  ZINC000489403631   -0.1100
     20 C20        -7.7801    2.1494   55.0977 C.ar    1  ZINC000489403631   -0.1700
     21 C21        -7.8070    1.2523   54.0399 C.ar    1  ZINC000489403631    0.1000
     22 O22        -7.1371    1.5358   52.8913 O.3     1  ZINC000489403631   -0.2500
     23 C23        -7.6178    2.5298   52.1021 C.ar    1  ZINC000489403631    0.1400
     24 C24        -8.9501    2.5379   51.6955 C.ar    1  ZINC000489403631   -0.2000
     25 C25        -9.4003    3.5662   50.8934 C.ar    1  ZINC000489403631    0.1200
     26 N26        -8.5864    4.5326   50.5121 N.ar    1  ZINC000489403631   -0.4900
     27 C27        -7.3184    4.5598   50.8766 C.ar    1  ZINC000489403631    0.1200
     28 C28        -6.7931    3.5711   51.6829 C.ar    1  ZINC000489403631   -0.1800
     29 H29        -7.7362   -1.6068   53.0939 H       1  ZINC000489403631    0.0700
     30 H30        -9.5064   -1.4419   53.0067 H       1  ZINC000489403631    0.0700
     31 H31        -8.4635   -0.3543   52.0592 H       1  ZINC000489403631    0.0700
     32 H32        -9.7640   -1.1388   55.4021 H       1  ZINC000489403631    0.1500
     33 H33       -10.8346    0.4316   57.5813 H       1  ZINC000489403631    0.4100
     34 H34        -8.1554   -0.1983   61.1683 H       1  ZINC000489403631    0.1000
     35 H35        -9.4992   -1.1267   61.8758 H       1  ZINC000489403631    0.0900
     36 H36        -8.5459   -1.8176   60.5407 H       1  ZINC000489403631    0.0800
     37 H37       -11.1972    1.4587   59.8045 H       1  ZINC000489403631    0.0800
     38 H38       -11.0475    0.7864   61.4458 H       1  ZINC000489403631    0.0900
     39 H39        -9.7037    1.7149   60.7384 H       1  ZINC000489403631    0.0900
     40 H40       -12.4567   -0.7436   61.2029 H       1  ZINC000489403631    0.2000
     41 H41       -12.4736   -3.6074   58.0221 H       1  ZINC000489403631    0.2100
     42 H42        -8.4361    2.5586   57.0896 H       1  ZINC000489403631    0.1300
     43 H43        -7.2234    3.0707   55.0102 H       1  ZINC000489403631    0.1300
     44 H44        -9.6213    1.7500   52.0036 H       1  ZINC000489403631    0.1400
     45 H45       -10.4316    3.5803   50.5731 H       1  ZINC000489403631    0.1600
     46 H46        -6.6849    5.3684   50.5428 H       1  ZINC000489403631    0.1700
     47 H47        -5.7545    3.5995   51.9778 H       1  ZINC000489403631    0.1500
@<TRIPOS>BOND
     1     1     2    1
     2     1    29    1
     3     1    30    1
     4     1    31    1
     5     2    21   ar
     6     2     3   ar
     7     3     4   ar
     8     3    32    1
     9     4     5    1
    10     4    19   ar
    11     5     6   am
    12     5    33    1
    13     6     7    2
    14     6     8    1
    15     8     9    1
    16     8    10    1
    17     8    11    1
    18     9    34    1
    19     9    35    1
    20     9    36    1
    21    10    37    1
    22    10    38    1
    23    10    39    1
    24    11    18    1
    25    11    12    1
    26    12    13    2
    27    12    40    1
    28    13    14    1
    29    13    17    1
    30    14    15    2
    31    14    16    2
    32    17    18    2
    33    17    41    1
    34    19    20   ar
    35    19    42    1
    36    20    21   ar
    37    20    43    1
    38    21    22    1
    39    22    23    1
    40    23    28   ar
    41    23    24   ar
    42    24    25   ar
    43    24    44    1
    44    25    26   ar
    45    25    45    1
    46    26    27   ar
    47    27    28   ar
    48    27    46    1
    49    28    47    1
@<TRIPOS>SUBSTRUCTURE
     1 ZINC000489403631        1 TEMP              0 ****  ****    0 ROOT


##########                                Name:    ZINC000851838607
##########                DOCK_Rotatable_Bonds:                  12
##########                         Heavy_Atoms:                  23
##########                    Molecular_Weight:             352.495
##########                DOCK_Rotatable_Bonds:                  12
##########                       Formal_Charge:          0.00999896
##########                     HBond_Acceptors:                   8
##########                        HBond_Donors:                   2
##########                         Heavy_Atoms:                  23
##########                          Grid_Score:          -31.452068
##########                     Grid_vdw_energy:          -31.677902
##########                      Grid_es_energy:            0.225834
##########           Internal_energy_repulsive:           23.887648

@<TRIPOS>MOLECULE
ZINC000851838607
 55 54 1 0 0
SMALL
USER_CHARGES


@<TRIPOS>ATOM
      1 C1        -12.3494    0.1575   51.1641 C.3     1  ZINC000851838607    0.0300
      2 O2        -11.1102    0.0783   51.8713 O.3     1  ZINC000851838607   -0.3800
      3 C3        -10.9142   -1.1560   52.5643 C.3     1  ZINC000851838607    0.0800
      4 C4         -9.6323   -1.0761   53.3957 C.3     1  ZINC000851838607   -0.6000
      5 H5         -9.4386   -2.0438   53.8586 H       1  ZINC000851838607    0.1400
      6 C6         -8.4587   -0.7005   52.4888 C.3     1  ZINC000851838607   -0.1400
      7 S7         -9.8264    0.1836   54.6865 S.o2    1  ZINC000851838607    2.6200
      8 O8         -8.6471    0.9685   54.7985 O.2     1  ZINC000851838607   -0.9400
      9 O9        -11.1068    0.7936   54.5994 O.2     1  ZINC000851838607   -0.9500
     10 N10        -9.8795   -0.6778   56.0998 N.am    1  ZINC000851838607   -1.1200
     11 C11       -10.9306   -1.6764   56.3100 C.3     1  ZINC000851838607    0.1100
     12 C12       -12.0082   -1.0971   57.2287 C.3     1  ZINC000851838607   -0.1400
     13 C13       -12.4055   -2.1434   58.2718 C.3     1  ZINC000851838607    0.1700
     14 H14       -11.8988   -3.0837   58.0546 H       1  ZINC000851838607    0.1000
     15 N15       -12.0171   -1.6760   59.6048 N.am    1  ZINC000851838607   -0.7100
     16 C16       -10.7904   -1.9577   60.0868 C.2     1  ZINC000851838607    0.6500
     17 O17       -10.0071   -2.6008   59.4163 O.2     1  ZINC000851838607   -0.5600
     18 O18       -10.4328   -1.5267   61.3111 O.3     1  ZINC000851838607   -0.3700
     19 C19        -9.8274   -0.2097   61.3956 C.3     1  ZINC000851838607    0.1400
     20 C20        -8.8270   -0.0338   60.2514 C.3     1  ZINC000851838607   -0.1800
     21 C21       -10.9163    0.8599   61.2899 C.3     1  ZINC000851838607   -0.1400
     22 C22        -9.1010   -0.0672   62.7346 C.3     1  ZINC000851838607   -0.1800
     23 C23       -13.9197   -2.3580   58.2278 C.3     1  ZINC000851838607   -0.1100
     24 C24       -14.2346   -3.6008   57.3928 C.3     1  ZINC000851838607   -0.1500
     25 C25       -14.4489   -2.5518   59.6503 C.3     1  ZINC000851838607   -0.1400
     26 H26       -12.3955   -0.6392   50.4215 H       1  ZINC000851838607    0.0400
     27 H27       -13.1760    0.0480   51.8661 H       1  ZINC000851838607    0.0500
     28 H28       -12.4220    1.1239   50.6652 H       1  ZINC000851838607    0.0900
     29 H29       -11.7630   -1.3420   53.2222 H       1  ZINC000851838607    0.0700
     30 H30       -10.8291   -1.9683   51.8425 H       1  ZINC000851838607    0.0600
     31 H31        -7.5640   -0.5546   53.0941 H       1  ZINC000851838607    0.0700
     32 H32        -8.2845   -1.5010   51.7698 H       1  ZINC000851838607    0.0900
     33 H33        -8.6916    0.2217   51.9564 H       1  ZINC000851838607    0.0700
     34 H34        -9.2146   -0.5212   56.7885 H       1  ZINC000851838607    0.4200
     35 H35       -11.3754   -1.9430   55.3512 H       1  ZINC000851838607    0.0700
     36 H36       -10.5001   -2.5656   56.7705 H       1  ZINC000851838607    0.0800
     37 H37       -11.6191   -0.2119   57.7319 H       1  ZINC000851838607    0.0800
     38 H38       -12.8818   -0.8240   56.6369 H       1  ZINC000851838607    0.1000
     39 H39       -12.6427   -1.1637   60.1405 H       1  ZINC000851838607    0.4100
     40 H40        -9.3445   -0.1353   59.2975 H       1  ZINC000851838607    0.0600
     41 H41        -8.3726    0.9549   60.3149 H       1  ZINC000851838607    0.0700
     42 H42        -8.0513   -0.7958   60.3268 H       1  ZINC000851838607    0.0900
     43 H43       -11.6291    0.7347   62.1050 H       1  ZINC000851838607    0.0700
     44 H44       -10.4619    1.8487   61.3533 H       1  ZINC000851838607    0.0800
     45 H45       -11.4338    0.7585   60.3359 H       1  ZINC000851838607    0.0700
     46 H46        -8.3252   -0.8292   62.8100 H       1  ZINC000851838607    0.0900
     47 H47        -8.6465    0.9215   62.7981 H       1  ZINC000851838607    0.0700
     48 H48        -9.8137   -0.1925   63.5498 H       1  ZINC000851838607    0.0600
     49 H49       -14.3971   -1.4875   57.7780 H       1  ZINC000851838607    0.0700
     50 H50       -13.7572   -4.4713   57.8426 H       1  ZINC000851838607    0.0600
     51 H51       -15.3134   -3.7537   57.3615 H       1  ZINC000851838607    0.0600
     52 H52       -13.8577   -3.4627   56.3794 H       1  ZINC000851838607    0.0600
     53 H53       -14.2246   -1.6665   60.2452 H       1  ZINC000851838607    0.0500
     54 H54       -15.5276   -2.7048   59.6189 H       1  ZINC000851838607    0.0500
     55 H55       -13.9715   -3.4224   60.1001 H       1  ZINC000851838607    0.0700
@<TRIPOS>BOND
     1     1     2    1
     2     1    26    1
     3     1    27    1
     4     1    28    1
     5     2     3    1
     6     3     4    1
     7     3    29    1
     8     3    30    1
     9     4     5    1
    10     4     6    1
    11     4     7    1
    12     6    31    1
    13     6    32    1
    14     6    33    1
    15     7     8    2
    16     7     9    2
    17     7    10   am
    18    10    11    1
    19    10    34    1
    20    11    12    1
    21    11    35    1
    22    11    36    1
    23    12    13    1
    24    12    37    1
    25    12    38    1
    26    13    14    1
    27    13    15    1
    28    13    23    1
    29    15    16   am
    30    15    39    1
    31    16    17    2
    32    16    18    1
    33    18    19    1
    34    19    20    1
    35    19    21    1
    36    19    22    1
    37    20    40    1
    38    20    41    1
    39    20    42    1
    40    21    43    1
    41    21    44    1
    42    21    45    1
    43    22    46    1
    44    22    47    1
    45    22    48    1
    46    23    24    1
    47    23    25    1
    48    23    49    1
    49    24    50    1
    50    24    51    1
    51    24    52    1
    52    25    53    1
    53    25    54    1
    54    25    55    1
@<TRIPOS>SUBSTRUCTURE
     1 ZINC000851838607        1 TEMP              0 ****  ****    0 ROOT


##########                                Name:    ZINC000826435081
##########                DOCK_Rotatable_Bonds:                   7
##########                         Heavy_Atoms:                  28
##########                    Molecular_Weight:             388.361
##########                DOCK_Rotatable_Bonds:                   7
##########                       Formal_Charge:           0.0099996
##########                     HBond_Acceptors:                  12
##########                        HBond_Donors:                   3
##########                         Heavy_Atoms:                  28
##########                          Grid_Score:          -31.445797
##########                     Grid_vdw_energy:          -29.266363
##########                      Grid_es_energy:           -2.179434
##########           Internal_energy_repulsive:            6.635688

@<TRIPOS>MOLECULE
ZINC000826435081
 45 48 1 0 0
SMALL
USER_CHARGES


@<TRIPOS>ATOM
      1 O1         -6.4310    3.4882   58.5813 O.2     1  ZINC000826435081   -0.5700
      2 C2         -5.8820    3.3115   57.5108 C.2     1  ZINC000826435081    0.7200
      3 N3         -4.6305    3.7703   57.3115 N.am    1  ZINC000826435081   -0.7300
      4 C4         -3.9339    4.4873   58.3824 C.3     1  ZINC000826435081    0.1500
      5 C5         -2.8998    3.5621   59.0270 C.3     1  ZINC000826435081    0.0400
      6 H6         -3.3656    2.6063   59.2670 H       1  ZINC000826435081    0.0800
      7 C7         -2.3646    4.2069   60.3088 C.3     1  ZINC000826435081    0.0300
      8 O8         -1.3199    3.3893   60.8447 O.3     1  ZINC000826435081   -0.3800
      9 C9         -0.2344    3.1790   59.9365 C.3     1  ZINC000826435081    0.0200
     10 C10        -0.7696    2.5342   58.6547 C.3     1  ZINC000826435081    0.0200
     11 O11        -1.8151    3.3505   58.1183 O.3     1  ZINC000826435081   -0.3700
     12 N12        -6.5228    2.6518   56.5256 N.am    1  ZINC000826435081   -0.6400
     13 C13        -7.8239    2.1749   56.7328 C.2     1  ZINC000826435081    0.3300
     14 N14        -8.2149    0.9281   56.6109 N.2     1  ZINC000826435081   -0.2800
     15 N15        -9.5837    0.8679   56.9026 N.pl3   1  ZINC000826435081   -0.3300
     16 C16       -10.3792   -0.2832   56.8858 C.ar    1  ZINC000826435081    0.2200
     17 C17       -11.0903   -0.6212   55.7441 C.ar    1  ZINC000826435081   -0.1300
     18 C18       -11.8758   -1.7580   55.7280 C.ar    1  ZINC000826435081   -0.0500
     19 C19       -11.9591   -2.5655   56.8479 C.ar    1  ZINC000826435081   -0.1500
     20 C20       -11.2559   -2.2417   57.9939 C.ar    1  ZINC000826435081    0.1500
     21 F21       -11.3396   -3.0333   59.0854 F       1  ZINC000826435081   -0.1100
     22 C22       -10.4555   -1.1003   58.0188 C.ar    1  ZINC000826435081   -0.0500
     23 C23        -9.6986   -0.7473   59.2449 C.2     1  ZINC000826435081    0.2100
     24 N24       -10.0098    0.1878   60.1208 N.2     1  ZINC000826435081   -0.2800
     25 N25        -9.1065    0.1832   61.0400 N.pl3   1  ZINC000826435081   -0.2300
     26 N26        -8.2332   -0.7245   60.7746 N.2     1  ZINC000826435081   -0.0500
     27 N27        -8.5678   -1.3210   59.6811 N.2     1  ZINC000826435081   -0.2300
     28 C28       -10.0023    2.1241   57.2044 C.2     1  ZINC000826435081    0.0700
     29 C29        -8.9336    2.9478   57.1127 C.2     1  ZINC000826435081   -0.2400
     30 H30        -4.1909    3.6257   56.4589 H       1  ZINC000826435081    0.4000
     31 H31        -3.4312    5.3610   57.9675 H       1  ZINC000826435081    0.0800
     32 H32        -4.6551    4.8063   59.1350 H       1  ZINC000826435081    0.0900
     33 H33        -1.9715    5.1977   60.0815 H       1  ZINC000826435081    0.0700
     34 H34        -3.1706    4.2921   61.0377 H       1  ZINC000826435081    0.1100
     35 H35         0.2303    4.1353   59.6965 H       1  ZINC000826435081    0.0600
     36 H36         0.5022    2.5198   60.3957 H       1  ZINC000826435081    0.1100
     37 H37         0.0364    2.4490   57.9258 H       1  ZINC000826435081    0.1100
     38 H38        -1.1627    1.5434   58.8820 H       1  ZINC000826435081    0.0600
     39 H39        -6.0833    2.5073   55.6731 H       1  ZINC000826435081    0.4100
     40 H40       -11.0303    0.0053   54.8664 H       1  ZINC000826435081    0.1500
     41 H41       -12.4277   -2.0171   54.8365 H       1  ZINC000826435081    0.1500
     42 H42       -12.5759   -3.4519   56.8274 H       1  ZINC000826435081    0.1500
     43 H43        -9.0876    0.7716   61.8109 H       1  ZINC000826435081    0.4800
     44 H44       -11.0075    2.4129   57.4742 H       1  ZINC000826435081    0.1800
     45 H45        -8.9348    4.0127   57.2924 H       1  ZINC000826435081    0.1800
@<TRIPOS>BOND
     1     1     2    2
     2     2     3   am
     3     2    12   am
     4     3     4    1
     5     3    30    1
     6     4     5    1
     7     4    31    1
     8     4    32    1
     9     5     6    1
    10     5    11    1
    11     5     7    1
    12     7     8    1
    13     7    33    1
    14     7    34    1
    15     8     9    1
    16     9    10    1
    17     9    35    1
    18     9    36    1
    19    10    11    1
    20    10    37    1
    21    10    38    1
    22    12    13    1
    23    12    39    1
    24    13    29    1
    25    13    14    2
    26    14    15    1
    27    15    16    1
    28    15    28    1
    29    16    22   ar
    30    16    17   ar
    31    17    18   ar
    32    17    40    1
    33    18    19   ar
    34    18    41    1
    35    19    20   ar
    36    19    42    1
    37    20    21    1
    38    20    22   ar
    39    22    23    1
    40    23    27    1
    41    23    24    2
    42    24    25    1
    43    25    26    1
    44    25    43    1
    45    26    27    2
    46    28    29    2
    47    28    44    1
    48    29    45    1
@<TRIPOS>SUBSTRUCTURE
     1 ZINC000826435081        1 TEMP              0 ****  ****    0 ROOT


##########                                Name:    ZINC000992031068
##########                DOCK_Rotatable_Bonds:                   8
##########                         Heavy_Atoms:                  25
##########                    Molecular_Weight:             342.401
##########                DOCK_Rotatable_Bonds:                   8
##########                       Formal_Charge:           0.0199999
##########                     HBond_Acceptors:                   8
##########                        HBond_Donors:                   2
##########                         Heavy_Atoms:                  25
##########                          Grid_Score:          -31.427731
##########                     Grid_vdw_energy:          -30.006769
##########                      Grid_es_energy:           -1.420962
##########           Internal_energy_repulsive:            7.116659

@<TRIPOS>MOLECULE
ZINC000992031068
 47 49 1 0 0
SMALL
USER_CHARGES


@<TRIPOS>ATOM
      1 C1         -7.3575    0.3628   66.1526 C.3     1  ZINC000992031068   -0.1100
      2 C2         -8.6023    0.4199   65.3050 C.ar    1  ZINC000992031068    0.1800
      3 C3         -8.6330   -0.1910   64.0596 C.ar    1  ZINC000992031068   -0.1700
      4 C4         -9.8090   -0.1105   63.3128 C.ar    1  ZINC000992031068    0.1300
      5 C5         -9.8979   -0.7461   61.9743 C.2     1  ZINC000992031068    0.5700
      6 O6        -10.8547   -1.4401   61.6938 O.2     1  ZINC000992031068   -0.5200
      7 N7         -8.9172   -0.5534   61.0702 N.am    1  ZINC000992031068   -0.7100
      8 C8         -9.0058   -1.1792   59.7485 C.3     1  ZINC000992031068    0.1300
      9 C9         -9.9240   -0.3475   58.8508 C.3     1  ZINC000992031068   -0.1200
     10 C10        -9.1733    0.6703   57.9759 C.3     1  ZINC000992031068   -0.1400
     11 C11       -10.1478    0.2992   56.8457 C.3     1  ZINC000992031068    0.1200
     12 N12        -9.5113    0.2044   55.5295 N.am    1  ZINC000992031068   -0.7200
     13 C13       -10.1848   -0.3313   54.4923 C.2     1  ZINC000992031068    0.5200
     14 O14       -11.3182   -0.7335   54.6481 O.2     1  ZINC000992031068   -0.5200
     15 C15        -9.5294   -0.4304   53.1389 C.3     1  ZINC000992031068   -0.0800
     16 C16        -9.2381    0.9539   52.6194 C.2     1  ZINC000992031068    0.1000
     17 C17       -10.0969    1.7475   51.9383 C.2     1  ZINC000992031068   -0.2500
     18 C18        -9.4352    2.9440   51.6431 C.2     1  ZINC000992031068    0.0500
     19 N19        -8.2228    2.8713   52.1296 N.2     1  ZINC000992031068   -0.2900
     20 N20        -8.0761    1.6266   52.7553 N.pl3   1  ZINC000992031068   -0.3700
     21 C21        -6.8710    1.1377   53.4298 C.3     1  ZINC000992031068    0.1000
     22 C22       -10.3195   -1.0590   57.5461 C.3     1  ZINC000992031068   -0.1400
     23 N23       -10.8497    0.5450   63.8209 N.ar    1  ZINC000992031068   -0.5000
     24 C24       -10.7751    1.1093   65.0072 C.ar    1  ZINC000992031068    0.3000
     25 N25        -9.6808    1.0480   65.7409 N.ar    1  ZINC000992031068   -0.5100
     26 H26        -7.3908   -0.5223   66.7879 H       1  ZINC000992031068    0.0900
     27 H27        -6.4804    0.3141   65.5073 H       1  ZINC000992031068    0.0900
     28 H28        -7.3011    1.2553   66.7758 H       1  ZINC000992031068    0.0900
     29 H29        -7.7690   -0.7148   63.6778 H       1  ZINC000992031068    0.1600
     30 H30        -8.1526   -0.0002   61.2945 H       1  ZINC000992031068    0.4100
     31 H31        -8.0120   -1.2308   59.3036 H       1  ZINC000992031068    0.0700
     32 H32        -9.4112   -2.1860   59.8497 H       1  ZINC000992031068    0.0800
     33 H33       -10.7704    0.0784   59.3898 H       1  ZINC000992031068    0.1000
     34 H34        -9.2745    1.6998   58.3193 H       1  ZINC000992031068    0.0800
     35 H35        -8.1398    0.3911   57.7706 H       1  ZINC000992031068    0.0900
     36 H36       -11.0545    0.9041   56.8347 H       1  ZINC000992031068    0.1200
     37 H37        -8.6052    0.5273   55.4046 H       1  ZINC000992031068    0.4000
     38 H38        -8.5977   -0.9891   53.2263 H       1  ZINC000992031068    0.1200
     39 H39       -10.1979   -0.9444   52.4483 H       1  ZINC000992031068    0.1100
     40 H40       -11.1133    1.5005   51.6697 H       1  ZINC000992031068    0.1500
     41 H41        -9.8529    3.7827   51.1059 H       1  ZINC000992031068    0.1800
     42 H42        -6.9025    1.4225   54.4815 H       1  ZINC000992031068    0.0800
     43 H43        -6.8245    0.0517   53.3487 H       1  ZINC000992031068    0.0800
     44 H44        -5.9895    1.5752   52.9611 H       1  ZINC000992031068    0.0900
     45 H45        -9.5994   -1.8110   57.2233 H       1  ZINC000992031068    0.0900
     46 H46       -11.3460   -1.4255   57.5425 H       1  ZINC000992031068    0.0800
     47 H47       -11.6363    1.6345   65.3931 H       1  ZINC000992031068    0.2100
@<TRIPOS>BOND
     1     1     2    1
     2     1    26    1
     3     1    27    1
     4     1    28    1
     5     2    25   ar
     6     2     3   ar
     7     3     4   ar
     8     3    29    1
     9     4     5    1
    10     4    23   ar
    11     5     6    2
    12     5     7   am
    13     7     8    1
    14     7    30    1
    15     8     9    1
    16     8    31    1
    17     8    32    1
    18     9    22    1
    19     9    10    1
    20     9    33    1
    21    10    11    1
    22    10    34    1
    23    10    35    1
    24    11    12    1
    25    11    22    1
    26    11    36    1
    27    12    13   am
    28    12    37    1
    29    13    14    2
    30    13    15    1
    31    15    16    1
    32    15    38    1
    33    15    39    1
    34    16    20    1
    35    16    17    2
    36    17    18    1
    37    17    40    1
    38    18    19    2
    39    18    41    1
    40    19    20    1
    41    20    21    1
    42    21    42    1
    43    21    43    1
    44    21    44    1
    45    22    45    1
    46    22    46    1
    47    23    24   ar
    48    24    25   ar
    49    24    47    1
@<TRIPOS>SUBSTRUCTURE
     1 ZINC000992031068        1 TEMP              0 ****  ****    0 ROOT


##########                                Name:    ZINC000826052721
##########                DOCK_Rotatable_Bonds:                   3
##########                         Heavy_Atoms:                  29
##########                    Molecular_Weight:             393.399
##########                DOCK_Rotatable_Bonds:                   3
##########                       Formal_Charge:        -4.47035e-07
##########                     HBond_Acceptors:                   9
##########                        HBond_Donors:                   2
##########                         Heavy_Atoms:                  29
##########                          Grid_Score:          -31.422855
##########                     Grid_vdw_energy:          -27.766741
##########                      Grid_es_energy:           -3.656115
##########           Internal_energy_repulsive:            9.904210

@<TRIPOS>MOLECULE
ZINC000826052721
 46 50 1 0 0
SMALL
USER_CHARGES


@<TRIPOS>ATOM
      1 C1        -10.5295    3.7942   51.7754 C.3     1  ZINC000826052721   -0.0400
      2 N2         -9.1398    3.8927   52.2413 N.4     1  ZINC000826052721   -0.3800
      3 H3         -9.0420    4.6955   52.8446 H       1  ZINC000826052721    0.4300
      4 C4         -8.2449    4.0331   51.0890 C.3     1  ZINC000826052721    0.0500
      5 C5         -6.8052    3.9873   51.5280 C.ar    1  ZINC000826052721   -0.1300
      6 C6         -5.8347    4.4833   50.6708 C.ar    1  ZINC000826052721   -0.1000
      7 C7         -4.5028    4.4542   51.0333 C.ar    1  ZINC000826052721   -0.1000
      8 C8         -4.1333    3.9281   52.2570 C.ar    1  ZINC000826052721   -0.0800
      9 C9         -5.0986    3.4351   53.1126 C.ar    1  ZINC000826052721   -0.0800
     10 C10        -6.4357    3.4651   52.7498 C.ar    1  ZINC000826052721   -0.1200
     11 C11        -7.4590    2.9203   53.7133 C.3     1  ZINC000826052721    0.1100
     12 H12        -7.6196    3.6396   54.5164 H       1  ZINC000826052721    0.1100
     13 N13        -6.9715    1.6559   54.2802 N.3     1  ZINC000826052721   -0.6200
     14 C14        -7.7485    1.2622   55.3539 C.ar    1  ZINC000826052721    0.1600
     15 C15        -8.7162    0.2611   55.2171 C.ar    1  ZINC000826052721   -0.0400
     16 C16        -8.9272   -0.3990   53.9124 C.2     1  ZINC000826052721    0.0700
     17 N17        -7.9878   -0.9172   53.1177 N.2     1  ZINC000826052721   -0.3800
     18 N18        -8.5817   -1.3997   52.0801 N.2     1  ZINC000826052721   -0.1600
     19 N19        -9.8486   -1.1996   52.1838 N.2     1  ZINC000826052721   -0.1700
     20 N20       -10.0944   -0.5897   53.2927 N.pl3   1  ZINC000826052721   -0.3400
     21 C21        -9.4807   -0.1129   56.3316 C.ar    1  ZINC000826052721    0.1800
     22 N22        -9.3190    0.4580   57.4987 N.ar    1  ZINC000826052721   -0.4700
     23 C23        -8.4137    1.4259   57.6948 C.ar    1  ZINC000826052721    0.0900
     24 C24        -8.2621    2.0237   58.9592 C.ar    1  ZINC000826052721    0.1700
     25 F25        -9.0323    1.6237   59.9945 F       1  ZINC000826052721   -0.1100
     26 C26        -7.3346    3.0076   59.1367 C.ar    1  ZINC000826052721   -0.1900
     27 C27        -6.5305    3.4345   58.0815 C.ar    1  ZINC000826052721    0.1300
     28 F28        -5.6208    4.4118   58.2881 F       1  ZINC000826052721   -0.1300
     29 C29        -6.6517    2.8768   56.8416 C.ar    1  ZINC000826052721   -0.1500
     30 C30        -7.5953    1.8625   56.6259 C.ar    1  ZINC000826052721   -0.0600
     31 C31        -8.7784    2.6738   52.9804 C.3     1  ZINC000826052721    0.0000
     32 H32       -10.6345    2.9245   51.1267 H       1  ZINC000826052721    0.1200
     33 H33       -11.1938    3.6898   52.6334 H       1  ZINC000826052721    0.1300
     34 H34       -10.7914    4.6951   51.2207 H       1  ZINC000826052721    0.1200
     35 H35        -8.4404    4.9855   50.5961 H       1  ZINC000826052721    0.1400
     36 H36        -8.4327    3.2207   50.3870 H       1  ZINC000826052721    0.1400
     37 H37        -6.1222    4.8948   49.7145 H       1  ZINC000826052721    0.1300
     38 H38        -3.7509    4.8420   50.3621 H       1  ZINC000826052721    0.1300
     39 H39        -3.0922    3.9031   52.5433 H       1  ZINC000826052721    0.1300
     40 H40        -4.8103    3.0248   54.0691 H       1  ZINC000826052721    0.1400
     41 H41        -6.0004    1.7285   54.5440 H       1  ZINC000826052721    0.4100
     42 H42       -10.2243   -0.8887   56.2235 H       1  ZINC000826052721    0.1800
     43 H43        -7.2220    3.4632   60.1094 H       1  ZINC000826052721    0.1600
     44 H44        -6.0240    3.2153   56.0305 H       1  ZINC000826052721    0.1400
     45 H45        -8.6604    1.8439   52.2837 H       1  ZINC000826052721    0.1400
     46 H46        -9.5602    2.4399   53.7031 H       1  ZINC000826052721    0.1400
@<TRIPOS>BOND
     1     1     2    1
     2     1    32    1
     3     1    33    1
     4     1    34    1
     5     2     3    1
     6     2    31    1
     7     2     4    1
     8     4     5    1
     9     4    35    1
    10     4    36    1
    11     5    10   ar
    12     5     6   ar
    13     6     7   ar
    14     6    37    1
    15     7     8   ar
    16     7    38    1
    17     8     9   ar
    18     8    39    1
    19     9    10   ar
    20     9    40    1
    21    10    11    1
    22    11    12    1
    23    11    13    1
    24    11    31    1
    25    13    14    1
    26    13    41    1
    27    14    30   ar
    28    14    15   ar
    29    15    16    1
    30    15    21   ar
    31    16    20    1
    32    16    17    2
    33    17    18    1
    34    18    19    2
    35    19    20    1
    36    21    22   ar
    37    21    42    1
    38    22    23   ar
    39    23    30   ar
    40    23    24   ar
    41    24    25    1
    42    24    26   ar
    43    26    27   ar
    44    26    43    1
    45    27    28    1
    46    27    29   ar
    47    29    30   ar
    48    29    44    1
    49    31    45    1
    50    31    46    1
@<TRIPOS>SUBSTRUCTURE
     1 ZINC000826052721        1 TEMP              0 ****  ****    0 ROOT


##########                                Name:    ZINC000512239524
##########                DOCK_Rotatable_Bonds:                   9
##########                         Heavy_Atoms:                  31
##########                    Molecular_Weight:             424.518
##########                DOCK_Rotatable_Bonds:                   9
##########                       Formal_Charge:          0.00999919
##########                     HBond_Acceptors:                   7
##########                        HBond_Donors:                   1
##########                         Heavy_Atoms:                  31
##########                          Grid_Score:          -31.392221
##########                     Grid_vdw_energy:          -29.824423
##########                      Grid_es_energy:           -1.567798
##########           Internal_energy_repulsive:           30.636450

@<TRIPOS>MOLECULE
ZINC000512239524
 60 63 1 0 0
SMALL
USER_CHARGES


@<TRIPOS>ATOM
      1 C1        -10.5287    3.1794   62.6111 C.3     1  ZINC000512239524   -0.1600
      2 C2        -10.7857    1.6711   62.6118 C.3     1  ZINC000512239524    0.2000
      3 H3        -11.8233    1.4795   62.8849 H       1  ZINC000512239524    0.1100
      4 N4        -10.5247    1.1307   61.2754 N.am    1  ZINC000512239524   -0.7400
      5 C5        -11.0429   -0.0607   60.9172 C.2     1  ZINC000512239524    0.7100
      6 O6        -11.7271   -0.6871   61.7033 O.2     1  ZINC000512239524   -0.5800
      7 N7        -10.8028   -0.5579   59.6877 N.am    1  ZINC000512239524   -0.6300
      8 C8        -11.3657   -1.8525   59.2807 C.3     1  ZINC000512239524    0.1300
      9 C9        -12.1333   -1.6657   57.9680 C.3     1  ZINC000512239524   -0.1100
     10 C10       -11.2096   -1.0270   56.9282 C.3     1  ZINC000512239524   -0.1000
     11 C11       -11.9512   -0.8729   55.6254 C.2     1  ZINC000512239524    0.5300
     12 O12       -13.1446   -0.6568   55.6288 O.2     1  ZINC000512239524   -0.5300
     13 N13       -11.2881   -0.9750   54.4564 N.am    1  ZINC000512239524   -0.5800
     14 C14       -12.0088   -0.8234   53.1899 C.3     1  ZINC000512239524    0.1500
     15 C15       -12.0145    0.6284   52.7859 C.ar    1  ZINC000512239524   -0.1100
     16 C16       -12.1310    0.9743   51.4526 C.ar    1  ZINC000512239524   -0.0900
     17 C17       -12.1363    2.3060   51.0821 C.ar    1  ZINC000512239524   -0.1200
     18 C18       -12.0255    3.2919   52.0448 C.ar    1  ZINC000512239524   -0.1100
     19 C19       -11.9099    2.9459   53.3781 C.ar    1  ZINC000512239524   -0.1200
     20 C20       -11.9090    1.6143   53.7491 C.ar    1  ZINC000512239524   -0.1100
     21 C21        -9.8469   -1.2377   54.4523 C.3     1  ZINC000512239524    0.0700
     22 C22        -9.0758   -0.9264   53.1681 C.3     1  ZINC000512239524   -0.1900
     23 C23        -8.9089   -0.0303   54.3969 C.3     1  ZINC000512239524   -0.2000
     24 C24       -10.7561    0.3485   57.4226 C.3     1  ZINC000512239524   -0.1400
     25 C25        -9.9781    0.1873   58.7269 C.3     1  ZINC000512239524    0.1100
     26 C26        -9.8726    1.0065   63.6096 C.ar    1  ZINC000512239524   -0.0800
     27 C27        -8.5665    0.6872   63.2734 C.ar    1  ZINC000512239524   -0.1400
     28 C28        -7.7578    0.0784   64.2148 C.ar    1  ZINC000512239524    0.1000
     29 N29        -8.2148   -0.1992   65.4199 N.ar    1  ZINC000512239524   -0.4600
     30 C30        -9.4512    0.0892   65.7766 C.ar    1  ZINC000512239524    0.0800
     31 C31       -10.3179    0.7044   64.8899 C.ar    1  ZINC000512239524    0.0600
     32 F32       -11.5833    0.9973   65.2615 F       1  ZINC000512239524   -0.1200
     33 H33       -11.1891    3.6601   61.8894 H       1  ZINC000512239524    0.0700
     34 H34       -10.7229    3.5815   63.6054 H       1  ZINC000512239524    0.0700
     35 H35        -9.4911    3.3710   62.3379 H       1  ZINC000512239524    0.0600
     36 H36        -9.9788    1.6304   60.6482 H       1  ZINC000512239524    0.3900
     37 H37       -10.5598   -2.5714   59.1336 H       1  ZINC000512239524    0.0700
     38 H38       -12.0448   -2.2147   60.0526 H       1  ZINC000512239524    0.1000
     39 H39       -12.4745   -2.6351   57.6050 H       1  ZINC000512239524    0.0900
     40 H40       -12.9927   -1.0173   58.1384 H       1  ZINC000512239524    0.0800
     41 H41       -10.3380   -1.6638   56.7768 H       1  ZINC000512239524    0.1000
     42 H42       -11.5147   -1.4133   52.4179 H       1  ZINC000512239524    0.0900
     43 H43       -13.0347   -1.1708   53.3118 H       1  ZINC000512239524    0.1000
     44 H44       -12.2176    0.2042   50.7004 H       1  ZINC000512239524    0.1300
     45 H45       -12.2267    2.5763   50.0403 H       1  ZINC000512239524    0.1200
     46 H46       -12.0289    4.3323   51.7551 H       1  ZINC000512239524    0.1200
     47 H47       -11.8230    3.7161   54.1302 H       1  ZINC000512239524    0.1200
     48 H48       -11.8186    1.3441   54.7909 H       1  ZINC000512239524    0.1200
     49 H49        -9.5243   -2.0991   55.0372 H       1  ZINC000512239524    0.1300
     50 H50        -8.2457   -1.5832   52.9078 H       1  ZINC000512239524    0.1100
     51 H51        -9.6407   -0.5262   52.3263 H       1  ZINC000512239524    0.1000
     52 H52        -9.3641    0.9596   54.3634 H       1  ZINC000512239524    0.1100
     53 H53        -7.9691   -0.0974   54.9449 H       1  ZINC000512239524    0.1000
     54 H54       -10.1172    0.8127   56.6713 H       1  ZINC000512239524    0.0900
     55 H55       -11.6286    0.9779   57.5980 H       1  ZINC000512239524    0.0700
     56 H56        -9.7389    1.1699   59.1335 H       1  ZINC000512239524    0.0800
     57 H57        -9.0581   -0.3660   58.5376 H       1  ZINC000512239524    0.0800
     58 H58        -8.1854    0.9110   62.2880 H       1  ZINC000512239524    0.1400
     59 H59        -6.7389   -0.1732   63.9598 H       1  ZINC000512239524    0.1700
     60 H60        -9.7900   -0.1539   66.7729 H       1  ZINC000512239524    0.1700
@<TRIPOS>BOND
     1     1     2    1
     2     1    33    1
     3     1    34    1
     4     1    35    1
     5     2     3    1
     6     2     4    1
     7     2    26    1
     8     4     5   am
     9     4    36    1
    10     5     6    2
    11     5     7   am
    12     7    25    1
    13     7     8    1
    14     8     9    1
    15     8    37    1
    16     8    38    1
    17     9    10    1
    18     9    39    1
    19     9    40    1
    20    10    11    1
    21    10    24    1
    22    10    41    1
    23    11    12    2
    24    11    13   am
    25    13    14    1
    26    13    21    1
    27    14    15    1
    28    14    42    1
    29    14    43    1
    30    15    20   ar
    31    15    16   ar
    32    16    17   ar
    33    16    44    1
    34    17    18   ar
    35    17    45    1
    36    18    19   ar
    37    18    46    1
    38    19    20   ar
    39    19    47    1
    40    20    48    1
    41    21    23    1
    42    21    22    1
    43    21    49    1
    44    22    23    1
    45    22    50    1
    46    22    51    1
    47    23    52    1
    48    23    53    1
    49    24    25    1
    50    24    54    1
    51    24    55    1
    52    25    56    1
    53    25    57    1
    54    26    31   ar
    55    26    27   ar
    56    27    28   ar
    57    27    58    1
    58    28    29   ar
    59    28    59    1
    60    29    30   ar
    61    30    31   ar
    62    30    60    1
    63    31    32    1
@<TRIPOS>SUBSTRUCTURE
     1 ZINC000512239524        1 TEMP              0 ****  ****    0 ROOT


##########                                Name:    ZINC000482187991
##########                DOCK_Rotatable_Bonds:                  11
##########                         Heavy_Atoms:                  29
##########                    Molecular_Weight:             407.414
##########                DOCK_Rotatable_Bonds:                  11
##########                       Formal_Charge:           0.0299996
##########                     HBond_Acceptors:                   8
##########                        HBond_Donors:                   1
##########                         Heavy_Atoms:                  29
##########                          Grid_Score:          -31.387810
##########                     Grid_vdw_energy:          -30.435036
##########                      Grid_es_energy:           -0.952775
##########           Internal_energy_repulsive:           12.122389

@<TRIPOS>MOLECULE
ZINC000482187991
 52 53 1 0 0
SMALL
USER_CHARGES


@<TRIPOS>ATOM
      1 C1        -13.1099    2.1778   63.4800 C.3     1  ZINC000482187991    0.0200
      2 O2        -11.7626    2.5887   63.7214 O.3     1  ZINC000482187991   -0.3000
      3 C3        -10.7936    1.6461   63.5723 C.ar    1  ZINC000482187991    0.1400
      4 C4        -10.4432    1.2109   62.3092 C.ar    1  ZINC000482187991   -0.1700
      5 C5         -9.4452    0.2409   62.1566 C.ar    1  ZINC000482187991   -0.1000
      6 C6         -9.0695   -0.2242   60.8153 C.2     1  ZINC000482187991    0.4000
      7 O7         -8.2114    0.3610   60.1888 O.2     1  ZINC000482187991   -0.4500
      8 C8         -9.7500   -1.4284   60.2172 C.3     1  ZINC000482187991   -0.1500
      9 C9        -11.1456   -1.0354   59.7286 C.3     1  ZINC000482187991   -0.1300
     10 C10       -11.2951   -1.4143   58.2776 C.2     1  ZINC000482187991    0.5200
     11 O11       -12.0889   -2.2721   57.9536 O.2     1  ZINC000482187991   -0.5200
     12 N12       -10.5465   -0.8002   57.3402 N.am    1  ZINC000482187991   -0.7200
     13 C13       -10.6906   -1.1698   55.9298 C.3     1  ZINC000482187991    0.1500
     14 H14       -10.6389   -2.2541   55.8314 H       1  ZINC000482187991    0.1300
     15 C15        -9.5803   -0.5393   55.1294 C.ar    1  ZINC000482187991   -0.1100
     16 C16        -9.0719   -1.1899   54.0208 C.ar    1  ZINC000482187991   -0.1000
     17 C17        -8.0534   -0.6116   53.2866 C.ar    1  ZINC000482187991   -0.1200
     18 C18        -7.5434    0.6176   53.6609 C.ar    1  ZINC000482187991   -0.1100
     19 C19        -8.0524    1.2686   54.7692 C.ar    1  ZINC000482187991   -0.1200
     20 C20        -9.0739    0.6922   55.5008 C.ar    1  ZINC000482187991   -0.1000
     21 C21       -12.0407   -0.6740   55.4080 C.3     1  ZINC000482187991    0.2500
     22 F22       -12.1068    0.7177   55.5345 F       1  ZINC000482187991   -0.1900
     23 F23       -12.1783   -1.0270   54.0613 F       1  ZINC000482187991   -0.2000
     24 C24        -8.8058   -0.2844   63.2861 C.ar    1  ZINC000482187991   -0.1900
     25 C25        -9.1616    0.1558   64.5461 C.ar    1  ZINC000482187991    0.1400
     26 O26        -8.5409   -0.3535   65.6438 O.3     1  ZINC000482187991   -0.3000
     27 C27        -7.3168    0.2664   66.0429 C.3     1  ZINC000482187991    0.0200
     28 C28       -10.1515    1.1250   64.6935 C.ar    1  ZINC000482187991    0.0600
     29 O29       -10.4984    1.5557   65.9342 O.3     1  ZINC000482187991   -0.3100
     30 C30       -10.0320    2.8484   66.3261 C.3     1  ZINC000482187991    0.0400
     31 H31       -13.7806    3.0232   63.6335 H       1  ZINC000482187991    0.1100
     32 H32       -13.2029    1.8220   62.4539 H       1  ZINC000482187991    0.0600
     33 H33       -13.3738    1.3749   64.1683 H       1  ZINC000482187991    0.0600
     34 H34       -10.9388    1.6181   61.4403 H       1  ZINC000482187991    0.1500
     35 H35        -9.1618   -1.7984   59.3773 H       1  ZINC000482187991    0.1100
     36 H36        -9.8361   -2.2095   60.9725 H       1  ZINC000482187991    0.1100
     37 H37       -11.8979   -1.5576   60.3198 H       1  ZINC000482187991    0.1000
     38 H38       -11.2795    0.0406   59.8387 H       1  ZINC000482187991    0.1000
     39 H39        -9.9124   -0.1133   57.5992 H       1  ZINC000482187991    0.4100
     40 H40        -9.4703   -2.1502   53.7283 H       1  ZINC000482187991    0.1200
     41 H41        -7.6557   -1.1201   52.4208 H       1  ZINC000482187991    0.1300
     42 H42        -6.7472    1.0691   53.0878 H       1  ZINC000482187991    0.1300
     43 H43        -7.6537    2.2287   55.0618 H       1  ZINC000482187991    0.1300
     44 H44        -9.4714    1.2009   56.3665 H       1  ZINC000482187991    0.1300
     45 H45       -12.8437   -1.1301   55.9870 H       1  ZINC000482187991    0.1200
     46 H46        -8.0358   -1.0330   63.1723 H       1  ZINC000482187991    0.1500
     47 H47        -6.5903    0.1903   65.2338 H       1  ZINC000482187991    0.0600
     48 H48        -7.4987    1.3169   66.2702 H       1  ZINC000482187991    0.0600
     49 H49        -6.9276   -0.2350   66.9290 H       1  ZINC000482187991    0.1100
     50 H50        -8.9423    2.8633   66.3049 H       1  ZINC000482187991    0.0500
     51 H51       -10.4190    3.5988   65.6367 H       1  ZINC000482187991    0.0500
     52 H52       -10.3789    3.0692   67.3356 H       1  ZINC000482187991    0.1000
@<TRIPOS>BOND
     1     1     2    1
     2     1    31    1
     3     1    32    1
     4     1    33    1
     5     2     3    1
     6     3    28   ar
     7     3     4   ar
     8     4     5   ar
     9     4    34    1
    10     5     6    1
    11     5    24   ar
    12     6     7    2
    13     6     8    1
    14     8     9    1
    15     8    35    1
    16     8    36    1
    17     9    10    1
    18     9    37    1
    19     9    38    1
    20    10    11    2
    21    10    12   am
    22    12    13    1
    23    12    39    1
    24    13    14    1
    25    13    15    1
    26    13    21    1
    27    15    20   ar
    28    15    16   ar
    29    16    17   ar
    30    16    40    1
    31    17    18   ar
    32    17    41    1
    33    18    19   ar
    34    18    42    1
    35    19    20   ar
    36    19    43    1
    37    20    44    1
    38    21    22    1
    39    21    23    1
    40    21    45    1
    41    24    25   ar
    42    24    46    1
    43    25    26    1
    44    25    28   ar
    45    26    27    1
    46    27    47    1
    47    27    48    1
    48    27    49    1
    49    28    29    1
    50    29    30    1
    51    30    50    1
    52    30    51    1
    53    30    52    1
@<TRIPOS>SUBSTRUCTURE
     1 ZINC000482187991        1 TEMP              0 ****  ****    0 ROOT


##########                                Name:    ZINC000672622940
##########                DOCK_Rotatable_Bonds:                   7
##########                         Heavy_Atoms:                  30
##########                    Molecular_Weight:             416.523
##########                DOCK_Rotatable_Bonds:                   7
##########                       Formal_Charge:          -0.0100002
##########                     HBond_Acceptors:                   9
##########                        HBond_Donors:                   1
##########                         Heavy_Atoms:                  30
##########                          Grid_Score:          -31.377649
##########                     Grid_vdw_energy:          -31.795580
##########                      Grid_es_energy:            0.417931
##########           Internal_energy_repulsive:           29.716112

@<TRIPOS>MOLECULE
ZINC000672622940
 62 65 1 0 0
SMALL
USER_CHARGES


@<TRIPOS>ATOM
      1 C1         -7.5829    0.6264   66.6017 C.3     1  ZINC000672622940    0.0800
      2 N2         -8.6567    0.8973   65.6427 N.am    1  ZINC000672622940   -0.6200
      3 C3         -9.9598    1.3707   66.1165 C.3     1  ZINC000672622940    0.0700
      4 C4         -8.4460    0.7110   64.3246 C.2     1  ZINC000672622940    0.5200
      5 O5         -7.3678    0.3176   63.9326 O.2     1  ZINC000672622940   -0.5300
      6 C6         -9.5501    0.9914   63.3380 C.3     1  ZINC000672622940   -0.1000
      7 H7        -10.5088    0.7164   63.7777 H       1  ZINC000672622940    0.1000
      8 C8         -9.5571    2.4813   62.9903 C.3     1  ZINC000672622940   -0.1300
      9 C9        -10.6780    2.7659   61.9886 C.3     1  ZINC000672622940   -0.1100
     10 C10       -10.4462    1.9467   60.7174 C.3     1  ZINC000672622940   -0.1300
     11 C11       -10.4392    0.4567   61.0652 C.3     1  ZINC000672622940    0.1400
     12 H12       -11.3979    0.1817   61.5048 H       1  ZINC000672622940    0.1000
     13 N13       -10.2173   -0.3279   59.8479 N.am    1  ZINC000672622940   -0.6900
     14 C14       -11.2596   -0.6594   59.0605 C.2     1  ZINC000672622940    0.5100
     15 O15       -12.3817   -0.3067   59.3589 O.2     1  ZINC000672622940   -0.5100
     16 C16       -11.0334   -1.4612   57.8198 C.2     1  ZINC000672622940    0.5100
     17 O17       -10.7886   -2.6471   57.8999 O.2     1  ZINC000672622940   -0.5200
     18 N18       -11.1014   -0.8672   56.6118 N.am    1  ZINC000672622940   -0.5800
     19 C19       -11.3909    0.5687   56.4989 C.3     1  ZINC000672622940    0.0700
     20 C20       -10.2953    1.2277   55.6548 C.3     1  ZINC000672622940   -0.1200
     21 C21       -10.1851    0.5014   54.3123 C.3     1  ZINC000672622940    0.0000
     22 C22        -9.1318    1.1682   53.4657 C.2     1  ZINC000672622940    0.2000
     23 N23        -8.9747    1.0331   52.1773 N.2     1  ZINC000672622940   -0.2800
     24 N24        -7.9798    1.7470   51.7854 N.2     1  ZINC000672622940   -0.2800
     25 C25        -7.4575    2.3711   52.8078 C.2     1  ZINC000672622940    0.1500
     26 C26        -6.3562    3.3335   53.1968 C.3     1  ZINC000672622940   -0.0400
     27 C27        -6.7686    3.8379   54.5985 C.3     1  ZINC000672622940   -0.1300
     28 C28        -7.6486    2.6750   55.1067 C.3     1  ZINC000672622940    0.1000
     29 N29        -8.1745    2.0249   53.9001 N.pl3   1  ZINC000672622940   -0.4900
     30 C30        -9.7976   -0.9598   54.5513 C.3     1  ZINC000672622940   -0.1200
     31 C31       -10.8814   -1.6422   55.3831 C.3     1  ZINC000672622940    0.1100
     32 C32        -9.3183    0.1720   62.0668 C.3     1  ZINC000672622940   -0.1100
     33 H33        -7.6386   -0.4129   66.9255 H       1  ZINC000672622940    0.0600
     34 H34        -6.6182    0.8082   66.1280 H       1  ZINC000672622940    0.0800
     35 H35        -7.6930    1.2823   67.4652 H       1  ZINC000672622940    0.0700
     36 H36        -9.9609    2.4603   66.1480 H       1  ZINC000672622940    0.0600
     37 H37       -10.7401    1.0260   65.4380 H       1  ZINC000672622940    0.0800
     38 H38       -10.1475    0.9781   67.1158 H       1  ZINC000672622940    0.0700
     39 H39        -9.7222    3.0650   63.8959 H       1  ZINC000672622940    0.0800
     40 H40        -8.5983    2.7562   62.5505 H       1  ZINC000672622940    0.0700
     41 H41       -11.6367    2.4910   62.4282 H       1  ZINC000672622940    0.0700
     42 H42       -10.6829    3.8274   61.7408 H       1  ZINC000672622940    0.0700
     43 H43       -11.2447    2.1494   60.0037 H       1  ZINC000672622940    0.0700
     44 H44        -9.4874    2.2216   60.2777 H       1  ZINC000672622940    0.0700
     45 H45        -9.3202   -0.6087   59.6088 H       1  ZINC000672622940    0.4100
     46 H46       -12.3582    0.7097   56.0168 H       1  ZINC000672622940    0.0700
     47 H47       -11.4064    1.0175   57.4922 H       1  ZINC000672622940    0.1400
     48 H48       -10.5485    2.2738   55.4827 H       1  ZINC000672622940    0.0800
     49 H49        -9.3431    1.1651   56.1816 H       1  ZINC000672622940    0.0800
     50 H50       -11.1448    0.5427   53.7972 H       1  ZINC000672622940    0.0900
     51 H51        -5.3975    2.8169   53.2443 H       1  ZINC000672622940    0.1000
     52 H52        -6.3086    4.1634   52.4917 H       1  ZINC000672622940    0.1000
     53 H53        -5.8954    3.9738   55.2366 H       1  ZINC000672622940    0.1100
     54 H54        -7.3449    4.7604   54.5269 H       1  ZINC000672622940    0.0900
     55 H55        -7.0484    1.9737   55.6865 H       1  ZINC000672622940    0.1000
     56 H56        -8.4693    3.0601   55.7120 H       1  ZINC000672622940    0.1000
     57 H57        -9.6964   -1.4707   53.5937 H       1  ZINC000672622940    0.0800
     58 H58        -8.8500   -1.0016   55.0884 H       1  ZINC000672622940    0.0800
     59 H59       -10.5634   -2.6530   55.6391 H       1  ZINC000672622940    0.1000
     60 H60       -11.8091   -1.6825   54.8124 H       1  ZINC000672622940    0.0800
     61 H61        -8.3595    0.4470   61.6271 H       1  ZINC000672622940    0.0800
     62 H62        -9.3133   -0.8895   62.3145 H       1  ZINC000672622940    0.0800
@<TRIPOS>BOND
     1     1     2    1
     2     1    33    1
     3     1    34    1
     4     1    35    1
     5     2     3    1
     6     2     4   am
     7     3    36    1
     8     3    37    1
     9     3    38    1
    10     4     5    2
    11     4     6    1
    12     6     7    1
    13     6    32    1
    14     6     8    1
    15     8     9    1
    16     8    39    1
    17     8    40    1
    18     9    10    1
    19     9    41    1
    20     9    42    1
    21    10    11    1
    22    10    43    1
    23    10    44    1
    24    11    12    1
    25    11    13    1
    26    11    32    1
    27    13    14   am
    28    13    45    1
    29    14    15    2
    30    14    16    1
    31    16    17    2
    32    16    18   am
    33    18    31    1
    34    18    19    1
    35    19    20    1
    36    19    46    1
    37    19    47    1
    38    20    21    1
    39    20    48    1
    40    20    49    1
    41    21    22    1
    42    21    30    1
    43    21    50    1
    44    22    29    1
    45    22    23    2
    46    23    24    1
    47    24    25    2
    48    25    29    1
    49    25    26    1
    50    26    27    1
    51    26    51    1
    52    26    52    1
    53    27    28    1
    54    27    53    1
    55    27    54    1
    56    28    29    1
    57    28    55    1
    58    28    56    1
    59    30    31    1
    60    30    57    1
    61    30    58    1
    62    31    59    1
    63    31    60    1
    64    32    61    1
    65    32    62    1
@<TRIPOS>SUBSTRUCTURE
     1 ZINC000672622940        1 TEMP              0 ****  ****    0 ROOT


##########                                Name:    ZINC000753658424
##########                DOCK_Rotatable_Bonds:                   8
##########                         Heavy_Atoms:                  24
##########                    Molecular_Weight:             332.399
##########                DOCK_Rotatable_Bonds:                   8
##########                       Formal_Charge:        -9.16421e-07
##########                     HBond_Acceptors:                   6
##########                        HBond_Donors:                   3
##########                         Heavy_Atoms:                  24
##########                          Grid_Score:          -31.362490
##########                     Grid_vdw_energy:          -30.687025
##########                      Grid_es_energy:           -0.675465
##########           Internal_energy_repulsive:           17.653221

@<TRIPOS>MOLECULE
ZINC000753658424
 48 49 1 0 0
SMALL
USER_CHARGES


@<TRIPOS>ATOM
      1 C1        -10.9754   -0.0712   52.2690 C.3     1  ZINC000753658424   -0.2000
      2 C2         -9.9377   -0.6909   53.1691 C.2     1  ZINC000753658424    0.4400
      3 O3         -9.5178   -1.8046   52.9339 O.2     1  ZINC000753658424   -0.4500
      4 C4         -9.4353    0.0521   54.3289 C.2     1  ZINC000753658424   -0.2500
      5 C5         -8.3148    0.8675   54.3639 C.2     1  ZINC000753658424    0.1000
      6 C6         -7.3915    1.1481   53.2064 C.3     1  ZINC000753658424   -0.1000
      7 N7         -8.1929    1.3645   55.6035 N.pl3   1  ZINC000753658424   -0.5300
      8 C8         -9.2201    0.8870   56.3889 C.2     1  ZINC000753658424   -0.0600
      9 C9         -9.4348    1.2017   57.8071 C.2     1  ZINC000753658424    0.5900
     10 O10       -10.2478    2.0488   58.1260 O.2     1  ZINC000753658424   -0.5200
     11 N11        -8.7311    0.5522   58.7555 N.am    1  ZINC000753658424   -0.7300
     12 C12        -8.9441    0.8673   60.1703 C.3     1  ZINC000753658424    0.0900
     13 C13        -8.6143   -0.3606   61.0214 C.3     1  ZINC000753658424    0.1900
     14 H14        -7.5469   -0.5715   60.9570 H       1  ZINC000753658424    0.1300
     15 O15        -9.3521   -1.4858   60.5400 O.3     1  ZINC000753658424   -0.5500
     16 C16        -8.9876   -0.0920   62.4566 C.2     1  ZINC000753658424   -0.0600
     17 C17       -10.0256    0.6555   62.8726 C.2     1  ZINC000753658424   -0.1800
     18 C18       -10.0022    0.6383   64.2862 C.2     1  ZINC000753658424   -0.2100
     19 C19        -8.9512   -0.1187   64.6493 C.2     1  ZINC000753658424    0.0000
     20 C20        -8.5310   -0.4227   66.0642 C.3     1  ZINC000753658424   -0.0800
     21 O21        -8.3439   -0.5632   63.5370 O.3     1  ZINC000753658424   -0.1700
     22 C22       -10.0058    0.0781   55.6243 C.2     1  ZINC000753658424   -0.0100
     23 C23       -11.2420   -0.6569   56.0744 C.3     1  ZINC000753658424   -0.0500
     24 C24       -10.9351   -1.4337   57.3563 C.3     1  ZINC000753658424   -0.1500
     25 C25       -12.3636    0.3483   56.3433 C.3     1  ZINC000753658424   -0.1500
     26 H26       -11.1656   -0.7331   51.4241 H       1  ZINC000753658424    0.0800
     27 H27       -11.8989    0.0782   52.8284 H       1  ZINC000753658424    0.1000
     28 H28       -10.6124    0.8894   51.9036 H       1  ZINC000753658424    0.0900
     29 H29        -7.6969    2.0710   52.7135 H       1  ZINC000753658424    0.0900
     30 H30        -6.3704    1.2527   53.5732 H       1  ZINC000753658424    0.0800
     31 H31        -7.4393    0.3233   52.4953 H       1  ZINC000753658424    0.0900
     32 H32        -7.4920    1.9656   55.9007 H       1  ZINC000753658424    0.4200
     33 H33        -8.0837   -0.1240   58.5013 H       1  ZINC000753658424    0.4000
     34 H34        -8.2960    1.6946   60.4597 H       1  ZINC000753658424    0.0900
     35 H35        -9.9851    1.1492   60.3271 H       1  ZINC000753658424    0.0800
     36 H36        -9.1679   -2.3087   61.0134 H       1  ZINC000753658424    0.3900
     37 H37       -10.7396    1.1705   62.2470 H       1  ZINC000753658424    0.1500
     38 H38       -10.6949    1.1374   64.9475 H       1  ZINC000753658424    0.1500
     39 H39        -9.0301   -1.3300   66.4046 H       1  ZINC000753658424    0.0800
     40 H40        -7.4512   -0.5670   66.0996 H       1  ZINC000753658424    0.0800
     41 H41        -8.8078    0.4091   66.7121 H       1  ZINC000753658424    0.0900
     42 H42       -11.5556   -1.3515   55.2951 H       1  ZINC000753658424    0.1100
     43 H43       -10.7381   -0.7327   58.1675 H       1  ZINC000753658424    0.0500
     44 H44       -11.7894   -2.0588   57.6157 H       1  ZINC000753658424    0.0600
     45 H45       -10.0589   -2.0628   57.1990 H       1  ZINC000753658424    0.0600
     46 H46       -12.6368    0.8454   55.4125 H       1  ZINC000753658424    0.0500
     47 H47       -13.2318   -0.1747   56.7442 H       1  ZINC000753658424    0.0600
     48 H48       -12.0213    1.0903   57.0645 H       1  ZINC000753658424    0.0600
@<TRIPOS>BOND
     1     1     2    1
     2     1    26    1
     3     1    27    1
     4     1    28    1
     5     2     3    2
     6     2     4    1
     7     4    22    1
     8     4     5    2
     9     5     6    1
    10     5     7    1
    11     6    29    1
    12     6    30    1
    13     6    31    1
    14     7     8    1
    15     7    32    1
    16     8     9    1
    17     8    22    2
    18     9    10    2
    19     9    11   am
    20    11    12    1
    21    11    33    1
    22    12    13    1
    23    12    34    1
    24    12    35    1
    25    13    14    1
    26    13    15    1
    27    13    16    1
    28    15    36    1
    29    16    21    1
    30    16    17    2
    31    17    18    1
    32    17    37    1
    33    18    19    2
    34    18    38    1
    35    19    20    1
    36    19    21    1
    37    20    39    1
    38    20    40    1
    39    20    41    1
    40    22    23    1
    41    23    24    1
    42    23    25    1
    43    23    42    1
    44    24    43    1
    45    24    44    1
    46    24    45    1
    47    25    46    1
    48    25    47    1
    49    25    48    1
@<TRIPOS>SUBSTRUCTURE
     1 ZINC000753658424        1 TEMP              0 ****  ****    0 ROOT


##########                                Name:    ZINC000536173632
##########                DOCK_Rotatable_Bonds:                   7
##########                         Heavy_Atoms:                  29
##########                    Molecular_Weight:             407.389
##########                DOCK_Rotatable_Bonds:                   7
##########                       Formal_Charge:        -2.98023e-07
##########                     HBond_Acceptors:                   8
##########                        HBond_Donors:                   0
##########                         Heavy_Atoms:                  29
##########                          Grid_Score:          -31.349445
##########                     Grid_vdw_energy:          -30.420902
##########                      Grid_es_energy:           -0.928543
##########           Internal_energy_repulsive:           13.761918

@<TRIPOS>MOLECULE
ZINC000536173632
 49 51 1 0 0
SMALL
USER_CHARGES


@<TRIPOS>ATOM
      1 C1        -11.4177    1.9674   66.8833 C.3     1  ZINC000536173632    0.0400
      2 O2        -10.5354    1.3647   65.9001 O.3     1  ZINC000536173632   -0.3500
      3 C3        -11.0309    1.1891   64.6599 C.2     1  ZINC000536173632    0.5100
      4 O4        -12.1686    1.5309   64.4064 O.2     1  ZINC000536173632   -0.5000
      5 C5        -10.1907    0.5807   63.6081 C.ar    1  ZINC000536173632   -0.1300
      6 C6         -8.8999    0.1416   63.9083 C.ar    1  ZINC000536173632   -0.0600
      7 C7         -8.1206   -0.4256   62.9213 C.ar    1  ZINC000536173632   -0.1300
      8 C8         -8.6153   -0.5592   61.6363 C.ar    1  ZINC000536173632   -0.0700
      9 C9         -9.8939   -0.1262   61.3317 C.ar    1  ZINC000536173632   -0.0800
     10 C10       -10.4243   -0.2760   59.9291 C.3     1  ZINC000536173632   -0.1000
     11 C11       -11.5037   -1.3274   59.9099 C.2     1  ZINC000536173632    0.5200
     12 O12       -11.7889   -1.9225   60.9275 O.2     1  ZINC000536173632   -0.5200
     13 N13       -12.1521   -1.6066   58.7618 N.am    1  ZINC000536173632   -0.6200
     14 C14       -13.2095   -2.6290   58.7182 C.3     1  ZINC000536173632    0.0700
     15 C15       -12.9097   -3.5856   57.5584 C.3     1  ZINC000536173632    0.0500
     16 O16       -12.7100   -2.8276   56.3629 O.3     1  ZINC000536173632   -0.3700
     17 C17       -11.5916   -1.9386   56.4135 C.3     1  ZINC000536173632    0.1200
     18 H18       -10.6862   -2.5045   56.6327 H       1  ZINC000536173632    0.0800
     19 C19       -11.4412   -1.2426   55.0853 C.ar    1  ZINC000536173632   -0.0900
     20 C20       -12.5616   -0.8134   54.3993 C.ar    1  ZINC000536173632   -0.0600
     21 C21       -12.4236   -0.1750   53.1807 C.ar    1  ZINC000536173632   -0.1200
     22 C22       -11.1653    0.0344   52.6489 C.ar    1  ZINC000536173632   -0.0700
     23 C23       -10.0444   -0.3940   53.3356 C.ar    1  ZINC000536173632   -0.1800
     24 C24        -8.6723   -0.1661   52.7554 C.3     1  ZINC000536173632    0.5100
     25 F25        -8.6559    1.0474   52.0597 F       1  ZINC000536173632   -0.1800
     26 F26        -7.7302   -0.1240   53.7888 F       1  ZINC000536173632   -0.1800
     27 F27        -8.3571   -1.2102   51.8793 F       1  ZINC000536173632   -0.1800
     28 C28       -10.1821   -1.0284   54.5557 C.ar    1  ZINC000536173632   -0.0500
     29 C29       -11.8277   -0.8937   57.5160 C.3     1  ZINC000536173632    0.0900
     30 C30       -10.6860    0.4370   62.3104 C.ar    1  ZINC000536173632   -0.0400
     31 H31       -11.7162    2.9594   66.5440 H       1  ZINC000536173632    0.0600
     32 H32       -12.3033    1.3441   67.0073 H       1  ZINC000536173632    0.0600
     33 H33       -10.8960    2.0513   67.8367 H       1  ZINC000536173632    0.1000
     34 H34        -8.5122    0.2461   64.9109 H       1  ZINC000536173632    0.1400
     35 H35        -7.1218   -0.7657   63.1522 H       1  ZINC000536173632    0.1400
     36 H36        -8.0008   -1.0034   60.8671 H       1  ZINC000536173632    0.1300
     37 H37       -10.8376    0.6752   59.5934 H       1  ZINC000536173632    0.1100
     38 H38        -9.6139   -0.5750   59.2643 H       1  ZINC000536173632    0.1100
     39 H39       -13.2233   -3.1831   59.6569 H       1  ZINC000536173632    0.1000
     40 H40       -14.1760   -2.1510   58.5594 H       1  ZINC000536173632    0.0800
     41 H41       -12.0092   -4.1575   57.7817 H       1  ZINC000536173632    0.0600
     42 H42       -13.7498   -4.2665   57.4218 H       1  ZINC000536173632    0.1100
     43 H43       -13.5449   -0.9770   54.8149 H       1  ZINC000536173632    0.1400
     44 H44       -13.2992    0.1598   52.6443 H       1  ZINC000536173632    0.1400
     45 H45       -11.0575    0.5326   51.6966 H       1  ZINC000536173632    0.1400
     46 H46        -9.3066   -1.3632   55.0923 H       1  ZINC000536173632    0.1400
     47 H47       -12.6547   -0.2423   57.2334 H       1  ZINC000536173632    0.0800
     48 H48       -10.9247   -0.3002   57.6588 H       1  ZINC000536173632    0.1100
     49 H49       -11.6838    0.7742   62.0715 H       1  ZINC000536173632    0.1400
@<TRIPOS>BOND
     1     1     2    1
     2     1    31    1
     3     1    32    1
     4     1    33    1
     5     2     3    1
     6     3     4    2
     7     3     5    1
     8     5    30   ar
     9     5     6   ar
    10     6     7   ar
    11     6    34    1
    12     7     8   ar
    13     7    35    1
    14     8     9   ar
    15     8    36    1
    16     9    10    1
    17     9    30   ar
    18    10    11    1
    19    10    37    1
    20    10    38    1
    21    11    12    2
    22    11    13   am
    23    13    29    1
    24    13    14    1
    25    14    15    1
    26    14    39    1
    27    14    40    1
    28    15    16    1
    29    15    41    1
    30    15    42    1
    31    16    17    1
    32    17    18    1
    33    17    19    1
    34    17    29    1
    35    19    28   ar
    36    19    20   ar
    37    20    21   ar
    38    20    43    1
    39    21    22   ar
    40    21    44    1
    41    22    23   ar
    42    22    45    1
    43    23    24    1
    44    23    28   ar
    45    24    25    1
    46    24    26    1
    47    24    27    1
    48    28    46    1
    49    29    47    1
    50    29    48    1
    51    30    49    1
@<TRIPOS>SUBSTRUCTURE
     1 ZINC000536173632        1 TEMP              0 ****  ****    0 ROOT


##########                                Name:    ZINC001039825450
##########                DOCK_Rotatable_Bonds:                   8
##########                         Heavy_Atoms:                  24
##########                    Molecular_Weight:             337.339
##########                DOCK_Rotatable_Bonds:                   8
##########                       Formal_Charge:           0.0100001
##########                     HBond_Acceptors:                  11
##########                        HBond_Donors:                   4
##########                         Heavy_Atoms:                  24
##########                          Grid_Score:          -31.318947
##########                     Grid_vdw_energy:          -27.559057
##########                      Grid_es_energy:           -3.759890
##########           Internal_energy_repulsive:            8.590262

@<TRIPOS>MOLECULE
ZINC001039825450
 43 45 1 0 0
SMALL
USER_CHARGES


@<TRIPOS>ATOM
      1 O1          5.3027    3.2401   55.0849 O.2     1  ZINC001039825450   -0.5100
      2 C2          4.3271    2.6392   55.4824 C.2     1  ZINC001039825450    0.5000
      3 C3          4.0581    2.5334   56.9615 C.3     1  ZINC001039825450    0.1300
      4 N4          2.6601    2.8796   57.2296 N.pl3   1  ZINC001039825450   -0.1500
      5 N5          1.9510    2.3744   58.1761 N.2     1  ZINC001039825450   -0.2800
      6 C6          0.7493    2.9037   58.1310 C.2     1  ZINC001039825450   -0.0200
      7 C7          0.7651    3.7982   57.0585 C.2     1  ZINC001039825450   -0.0200
      8 N8          1.9765    3.7342   56.5542 N.2     1  ZINC001039825450   -0.2800
      9 N9          3.4803    2.0708   54.6012 N.am    1  ZINC001039825450   -0.7300
     10 C10         3.7418    2.1737   53.1635 C.3     1  ZINC001039825450    0.1000
     11 C11         2.4353    2.4793   52.4282 C.3     1  ZINC001039825450    0.1100
     12 O12         1.5039    3.1209   53.3016 O.3     1  ZINC001039825450   -0.5400
     13 C13         2.7033    3.3484   51.1710 C.3     1  ZINC001039825450   -0.1600
     14 C14         1.5008    2.9711   50.2701 C.3     1  ZINC001039825450    0.1000
     15 N15         1.2844    1.5331   50.5123 N.am    1  ZINC001039825450   -0.6100
     16 C16         0.6871    0.6746   49.6623 C.2     1  ZINC001039825450    0.5200
     17 O17         0.2754    1.0689   48.5918 O.2     1  ZINC001039825450   -0.5100
     18 C18         0.5308   -0.7754   50.0419 C.3     1  ZINC001039825450    0.1100
     19 H19         0.6455   -0.9026   51.1183 H       1  ZINC001039825450    0.1200
     20 C20         1.5507   -1.6463   49.2827 C.3     1  ZINC001039825450    0.1100
     21 N21         0.7136   -2.5576   48.4882 N.am    1  ZINC001039825450   -0.7400
     22 C22        -0.5770   -2.2874   48.7236 C.2     1  ZINC001039825450    0.7100
     23 O23        -1.4885   -2.8940   48.1949 O.2     1  ZINC001039825450   -0.5800
     24 N24        -0.7741   -1.2875   49.5977 N.am    1  ZINC001039825450   -0.7200
     25 C25         1.8285    1.1905   51.8345 C.3     1  ZINC001039825450    0.1200
     26 H26         4.2498    1.5130   57.2936 H       1  ZINC001039825450    0.1400
     27 H27         4.7120    3.2196   57.4997 H       1  ZINC001039825450    0.1400
     28 H28        -0.0807    2.6904   58.7883 H       1  ZINC001039825450    0.2000
     29 H29        -0.0501    4.4187   56.7165 H       1  ZINC001039825450    0.2000
     30 H30         2.6979    1.5936   54.9191 H       1  ZINC001039825450    0.4000
     31 H31         4.4576    2.9751   52.9807 H       1  ZINC001039825450    0.0900
     32 H32         4.1511    1.2310   52.8002 H       1  ZINC001039825450    0.0900
     33 H33         1.3656    2.6566   54.1385 H       1  ZINC001039825450    0.3800
     34 H34         2.6878    4.4096   51.4192 H       1  ZINC001039825450    0.0900
     35 H35         3.6465    3.0727   50.6994 H       1  ZINC001039825450    0.0900
     36 H36         0.6177    3.5414   50.5578 H       1  ZINC001039825450    0.0800
     37 H37         1.7424    3.1471   49.2219 H       1  ZINC001039825450    0.0800
     38 H38         2.1702   -1.0299   48.6312 H       1  ZINC001039825450    0.0900
     39 H39         2.1701   -2.2077   49.9822 H       1  ZINC001039825450    0.1000
     40 H40         1.0436   -3.2451   47.8888 H       1  ZINC001039825450    0.4400
     41 H41        -1.6387   -0.9562   49.8870 H       1  ZINC001039825450    0.4400
     42 H42         2.6023    0.4299   51.7312 H       1  ZINC001039825450    0.0900
     43 H43         1.0303    0.8249   52.4805 H       1  ZINC001039825450    0.0900
@<TRIPOS>BOND
     1     1     2    2
     2     2     3    1
     3     2     9   am
     4     3     4    1
     5     3    26    1
     6     3    27    1
     7     4     8    1
     8     4     5    1
     9     5     6    2
    10     6     7    1
    11     6    28    1
    12     7     8    2
    13     7    29    1
    14     9    10    1
    15     9    30    1
    16    10    11    1
    17    10    31    1
    18    10    32    1
    19    11    25    1
    20    11    12    1
    21    11    13    1
    22    12    33    1
    23    13    14    1
    24    13    34    1
    25    13    35    1
    26    14    15    1
    27    14    36    1
    28    14    37    1
    29    15    16   am
    30    15    25    1
    31    16    17    2
    32    16    18    1
    33    18    19    1
    34    18    24    1
    35    18    20    1
    36    20    21    1
    37    20    38    1
    38    20    39    1
    39    21    22   am
    40    21    40    1
    41    22    23    2
    42    22    24   am
    43    24    41    1
    44    25    42    1
    45    25    43    1
@<TRIPOS>SUBSTRUCTURE
     1 ZINC001039825450        1 TEMP              0 ****  ****    0 ROOT


##########                                Name:    ZINC000429196987
##########                DOCK_Rotatable_Bonds:                   7
##########                         Heavy_Atoms:                  28
##########                    Molecular_Weight:             403.505
##########                DOCK_Rotatable_Bonds:                   7
##########                       Formal_Charge:          -0.0399997
##########                     HBond_Acceptors:                   9
##########                        HBond_Donors:                   1
##########                         Heavy_Atoms:                  28
##########                          Grid_Score:          -31.299667
##########                     Grid_vdw_energy:          -29.392916
##########                      Grid_es_energy:           -1.906751
##########           Internal_energy_repulsive:           15.939412

@<TRIPOS>MOLECULE
ZINC000429196987
 53 55 1 0 0
SMALL
USER_CHARGES


@<TRIPOS>ATOM
      1 C1         -0.4280    4.4507   57.1373 C.3     1  ZINC000429196987    0.0800
      2 N2         -1.7498    3.9431   56.7610 N.am    1  ZINC000429196987   -0.6300
      3 C3         -2.3824    2.8873   57.5554 C.3     1  ZINC000429196987    0.1600
      4 C4         -1.9618    3.0223   58.9962 C.ar    1  ZINC000429196987   -0.0600
      5 C5         -0.8595    2.3305   59.4622 C.ar    1  ZINC000429196987   -0.1300
      6 C6         -0.4738    2.4544   60.7839 C.ar    1  ZINC000429196987   -0.0300
      7 C7         -1.1901    3.2705   61.6394 C.ar    1  ZINC000429196987   -0.6600
      8 S8         -0.6987    3.4280   63.3241 S.o2    1  ZINC000429196987    2.5000
      9 C9         -0.8100    1.7434   63.9876 C.3     1  ZINC000429196987   -0.6500
     10 O10         0.6570    3.8485   63.2559 O.2     1  ZINC000429196987   -0.9400
     11 O11        -1.6951    4.2591   63.9036 O.2     1  ZINC000429196987   -0.9400
     12 C12        -2.2915    3.9634   61.1729 C.ar    1  ZINC000429196987   -0.0300
     13 C13        -2.6750    3.8425   59.8504 C.ar    1  ZINC000429196987   -0.1100
     14 C14        -2.3837    4.4476   55.6840 C.2     1  ZINC000429196987    0.7100
     15 O15        -1.8580    5.3229   55.0238 O.2     1  ZINC000429196987   -0.5800
     16 N16        -3.6004    3.9818   55.3387 N.am    1  ZINC000429196987   -0.7400
     17 C17        -4.2903    4.5315   54.1690 C.3     1  ZINC000429196987    0.1600
     18 C18        -3.6649    3.9631   52.8921 C.3     1  ZINC000429196987   -0.1300
     19 C19        -4.4284    4.4931   51.6763 C.3     1  ZINC000429196987    0.0700
     20 N20        -5.8388    4.0954   51.7709 N.3     1  ZINC000429196987   -0.4700
     21 C21        -6.5342    4.4475   50.6194 C.ar    1  ZINC000429196987    0.2500
     22 C22        -6.4810    5.7563   50.1415 C.ar    1  ZINC000429196987   -0.1300
     23 C23        -7.1918    6.0560   48.9901 C.ar    1  ZINC000429196987   -0.1000
     24 C24        -7.9121    5.0362   48.3841 C.ar    1  ZINC000429196987    0.0200
     25 N25        -7.9066    3.8254   48.9051 N.ar    1  ZINC000429196987   -0.2200
     26 N26        -7.2462    3.5394   49.9679 N.ar    1  ZINC000429196987   -0.2800
     27 C27        -6.4732    4.6686   52.9647 C.3     1  ZINC000429196987    0.0600
     28 C28        -5.7707    4.1439   54.2191 C.3     1  ZINC000429196987   -0.1200
     29 H29         0.3425    3.8644   56.6365 H       1  ZINC000429196987    0.0600
     30 H30        -0.3413    5.4953   56.8384 H       1  ZINC000429196987    0.0700
     31 H31        -0.3017    4.3699   58.2170 H       1  ZINC000429196987    0.0800
     32 H32        -3.4662    2.9782   57.4831 H       1  ZINC000429196987    0.1000
     33 H33        -2.0735    1.9130   57.1766 H       1  ZINC000429196987    0.0900
     34 H34        -0.2999    1.6929   58.7938 H       1  ZINC000429196987    0.1300
     35 H35         0.3870    1.9134   61.1482 H       1  ZINC000429196987    0.1400
     36 H36        -0.1422    1.0878   63.4285 H       1  ZINC000429196987    0.1300
     37 H37        -0.5201    1.7468   65.0383 H       1  ZINC000429196987    0.1300
     38 H38        -1.8346    1.3833   63.8946 H       1  ZINC000429196987    0.1300
     39 H39        -2.8510    4.6014   61.8412 H       1  ZINC000429196987    0.1400
     40 H40        -3.5355    4.3839   59.4860 H       1  ZINC000429196987    0.1400
     41 H41        -4.0193    3.2827   55.8646 H       1  ZINC000429196987    0.4000
     42 H42        -4.1979    5.6176   54.1687 H       1  ZINC000429196987    0.0900
     43 H43        -2.6213    4.2718   52.8295 H       1  ZINC000429196987    0.0800
     44 H44        -3.7225    2.8748   52.9119 H       1  ZINC000429196987    0.0700
     45 H45        -4.3587    5.5805   51.6495 H       1  ZINC000429196987    0.0600
     46 H46        -3.9945    4.0789   50.7662 H       1  ZINC000429196987    0.0900
     47 H47        -5.9043    6.5129   50.6528 H       1  ZINC000429196987    0.1500
     48 H48        -7.1857    7.0537   48.5768 H       1  ZINC000429196987    0.1500
     49 H49        -8.4776    5.2348   47.4856 H       1  ZINC000429196987    0.1700
     50 H50        -6.3940    5.7552   52.9318 H       1  ZINC000429196987    0.0500
     51 H51        -7.5245    4.3819   52.9905 H       1  ZINC000429196987    0.0900
     52 H52        -5.8615    3.0584   54.2598 H       1  ZINC000429196987    0.0800
     53 H53        -6.2318    4.5816   55.1045 H       1  ZINC000429196987    0.0800
@<TRIPOS>BOND
     1     1     2    1
     2     1    29    1
     3     1    30    1
     4     1    31    1
     5     2     3    1
     6     2    14   am
     7     3     4    1
     8     3    32    1
     9     3    33    1
    10     4    13   ar
    11     4     5   ar
    12     5     6   ar
    13     5    34    1
    14     6     7   ar
    15     6    35    1
    16     7     8    1
    17     7    12   ar
    18     8     9    1
    19     8    10    2
    20     8    11    2
    21     9    36    1
    22     9    37    1
    23     9    38    1
    24    12    13   ar
    25    12    39    1
    26    13    40    1
    27    14    15    2
    28    14    16   am
    29    16    17    1
    30    16    41    1
    31    17    28    1
    32    17    18    1
    33    17    42    1
    34    18    19    1
    35    18    43    1
    36    18    44    1
    37    19    20    1
    38    19    45    1
    39    19    46    1
    40    20    21    1
    41    20    27    1
    42    21    26   ar
    43    21    22   ar
    44    22    23   ar
    45    22    47    1
    46    23    24   ar
    47    23    48    1
    48    24    25   ar
    49    24    49    1
    50    25    26   ar
    51    27    28    1
    52    27    50    1
    53    27    51    1
    54    28    52    1
    55    28    53    1
@<TRIPOS>SUBSTRUCTURE
     1 ZINC000429196987        1 TEMP              0 ****  ****    0 ROOT


##########                                Name:    ZINC000534890536
##########                DOCK_Rotatable_Bonds:                   6
##########                         Heavy_Atoms:                  30
##########                    Molecular_Weight:             411.476
##########                DOCK_Rotatable_Bonds:                   6
##########                       Formal_Charge:          0.00999957
##########                     HBond_Acceptors:                   7
##########                        HBond_Donors:                   1
##########                         Heavy_Atoms:                  30
##########                          Grid_Score:          -31.294371
##########                     Grid_vdw_energy:          -29.625847
##########                      Grid_es_energy:           -1.668524
##########           Internal_energy_repulsive:           14.542952

@<TRIPOS>MOLECULE
ZINC000534890536
 56 59 1 0 0
SMALL
USER_CHARGES


@<TRIPOS>ATOM
      1 C1         -8.0213    5.5542   47.8663 C.3     1  ZINC000534890536    0.0300
      2 O2         -7.2204    5.9606   48.9779 O.3     1  ZINC000534890536   -0.3200
      3 C3         -7.3096    5.2123   50.1088 C.ar    1  ZINC000534890536    0.1300
      4 C4         -8.1521    4.1108   50.1485 C.ar    1  ZINC000534890536   -0.2100
      5 C5         -8.2405    3.3515   51.2992 C.ar    1  ZINC000534890536   -0.0700
      6 C6         -7.4906    3.6887   52.4108 C.ar    1  ZINC000534890536   -0.1100
      7 C7         -7.5895    2.8590   53.6649 C.3     1  ZINC000534890536   -0.0600
      8 H8         -7.0446    3.3271   54.4846 H       1  ZINC000534890536    0.0900
      9 C9         -7.0854    1.4128   53.4161 C.3     1  ZINC000534890536   -0.1200
     10 C10        -7.8552    0.5920   54.4722 C.3     1  ZINC000534890536    0.1000
     11 N11        -9.0488    1.3667   54.8421 N.am    1  ZINC000534890536   -0.6400
     12 C12        -9.9712    1.0007   55.7542 C.2     1  ZINC000534890536    0.7300
     13 O13       -10.9229    1.7229   55.9798 O.2     1  ZINC000534890536   -0.5700
     14 N14        -9.8387   -0.1658   56.4160 N.am    1  ZINC000534890536   -0.7300
     15 C15       -10.8404   -0.5628   57.4086 C.3     1  ZINC000534890536    0.1600
     16 H16       -11.7696   -0.0251   57.2202 H       1  ZINC000534890536    0.1200
     17 C17       -11.0935   -2.0686   57.3013 C.3     1  ZINC000534890536   -0.1300
     18 C18       -11.9246   -2.5078   58.5129 C.3     1  ZINC000534890536   -0.1300
     19 C19       -11.0685   -2.3647   59.7718 C.3     1  ZINC000534890536    0.1100
     20 N20       -10.4709   -1.0368   59.8341 N.am    1  ZINC000534890536   -0.5600
     21 C21       -10.0037   -0.5849   61.0746 C.ar    1  ZINC000534890536    0.1000
     22 C22        -8.6855   -0.8100   61.4453 C.ar    1  ZINC000534890536   -0.0800
     23 C23        -8.2271   -0.3626   62.6697 C.ar    1  ZINC000534890536   -0.1200
     24 C24        -9.0795    0.3086   63.5264 C.ar    1  ZINC000534890536   -0.0800
     25 C25       -10.3942    0.5354   63.1616 C.ar    1  ZINC000534890536   -0.1500
     26 C26       -10.8582    0.0956   61.9356 C.ar    1  ZINC000534890536    0.1100
     27 F27       -12.1423    0.3173   61.5789 F       1  ZINC000534890536   -0.1300
     28 C28       -10.3399   -0.2272   58.7841 C.2     1  ZINC000534890536    0.5000
     29 O29        -9.7884    0.8406   58.9478 O.2     1  ZINC000534890536   -0.5100
     30 C30        -9.0690    2.6113   54.0516 C.3     1  ZINC000534890536    0.1300
     31 C31        -6.6498    4.7858   52.3736 C.ar    1  ZINC000534890536   -0.0700
     32 C32        -6.5539    5.5453   51.2236 C.ar    1  ZINC000534890536   -0.1500
     33 H33        -7.7453    4.5421   47.5704 H       1  ZINC000534890536    0.0600
     34 H34        -9.0737    5.5757   48.1495 H       1  ZINC000534890536    0.0600
     35 H35        -7.8558    6.2349   47.0312 H       1  ZINC000534890536    0.1000
     36 H36        -8.7385    3.8473   49.2808 H       1  ZINC000534890536    0.1300
     37 H37        -8.8962    2.4938   51.3307 H       1  ZINC000534890536    0.1300
     38 H38        -7.3417    1.0829   52.4094 H       1  ZINC000534890536    0.0800
     39 H39        -6.0104    1.3450   53.5835 H       1  ZINC000534890536    0.0900
     40 H40        -8.1524   -0.3683   54.0508 H       1  ZINC000534890536    0.0700
     41 H41        -7.2280    0.4358   55.3498 H       1  ZINC000534890536    0.0700
     42 H42        -9.0800   -0.7427   56.2351 H       1  ZINC000534890536    0.4000
     43 H43       -11.6404   -2.2844   56.3835 H       1  ZINC000534890536    0.0900
     44 H44       -10.1424   -2.6012   57.2962 H       1  ZINC000534890536    0.0800
     45 H45       -12.8088   -1.8762   58.5981 H       1  ZINC000534890536    0.0800
     46 H46       -12.2260   -3.5484   58.3918 H       1  ZINC000534890536    0.1000
     47 H47       -11.6927   -2.5206   60.6517 H       1  ZINC000534890536    0.0800
     48 H48       -10.2781   -3.1152   59.7572 H       1  ZINC000534890536    0.0700
     49 H49        -8.0185   -1.3348   60.7775 H       1  ZINC000534890536    0.1300
     50 H50        -7.2012   -0.5378   62.9580 H       1  ZINC000534890536    0.1300
     51 H51        -8.7181    0.6563   64.4828 H       1  ZINC000534890536    0.1400
     52 H52       -11.0577    1.0601   63.8331 H       1  ZINC000534890536    0.1400
     53 H53        -9.4481    3.4371   54.6538 H       1  ZINC000534890536    0.0800
     54 H54        -9.6779    2.4825   53.1567 H       1  ZINC000534890536    0.0700
     55 H55        -6.0649    5.0469   53.2430 H       1  ZINC000534890536    0.1300
     56 H56        -5.8970    6.4020   51.1950 H       1  ZINC000534890536    0.1300
@<TRIPOS>BOND
     1     1     2    1
     2     1    33    1
     3     1    34    1
     4     1    35    1
     5     2     3    1
     6     3    32   ar
     7     3     4   ar
     8     4     5   ar
     9     4    36    1
    10     5     6   ar
    11     5    37    1
    12     6     7    1
    13     6    31   ar
    14     7     8    1
    15     7    30    1
    16     7     9    1
    17     9    10    1
    18     9    38    1
    19     9    39    1
    20    10    11    1
    21    10    40    1
    22    10    41    1
    23    11    12   am
    24    11    30    1
    25    12    13    2
    26    12    14   am
    27    14    15    1
    28    14    42    1
    29    15    16    1
    30    15    28    1
    31    15    17    1
    32    17    18    1
    33    17    43    1
    34    17    44    1
    35    18    19    1
    36    18    45    1
    37    18    46    1
    38    19    20    1
    39    19    47    1
    40    19    48    1
    41    20    21    1
    42    20    28   am
    43    21    26   ar
    44    21    22   ar
    45    22    23   ar
    46    22    49    1
    47    23    24   ar
    48    23    50    1
    49    24    25   ar
    50    24    51    1
    51    25    26   ar
    52    25    52    1
    53    26    27    1
    54    28    29    2
    55    30    53    1
    56    30    54    1
    57    31    32   ar
    58    31    55    1
    59    32    56    1
@<TRIPOS>SUBSTRUCTURE
     1 ZINC000534890536        1 TEMP              0 ****  ****    0 ROOT


##########                                Name:    ZINC000541000201
##########                DOCK_Rotatable_Bonds:                  10
##########                         Heavy_Atoms:                  30
##########                    Molecular_Weight:             420.413
##########                DOCK_Rotatable_Bonds:                  10
##########                       Formal_Charge:               -0.03
##########                     HBond_Acceptors:                   9
##########                        HBond_Donors:                   1
##########                         Heavy_Atoms:                  30
##########                          Grid_Score:          -31.281040
##########                     Grid_vdw_energy:          -29.800875
##########                      Grid_es_energy:           -1.480165
##########           Internal_energy_repulsive:           13.371986

@<TRIPOS>MOLECULE
ZINC000541000201
 52 54 1 0 0
SMALL
USER_CHARGES


@<TRIPOS>ATOM
      1 C1          5.4571    1.6997   51.0639 C.3     1  ZINC000541000201    0.0400
      2 O2          5.1556    1.7830   52.4818 O.3     1  ZINC000541000201   -0.3500
      3 C3          3.9146    1.4410   52.8621 C.2     1  ZINC000541000201    0.4500
      4 O4          3.7546    0.6608   53.7707 O.2     1  ZINC000541000201   -0.4900
      5 C5          2.7209    2.0301   52.1557 C.3     1  ZINC000541000201    0.2100
      6 H6          3.0160    2.9481   51.6475 H       1  ZINC000541000201    0.1400
      7 N7          1.6728    2.3292   53.1347 N.am    1  ZINC000541000201   -0.7100
      8 C8          0.6712    3.1719   52.8133 C.2     1  ZINC000541000201    0.5800
      9 O9          0.6367    3.6826   51.7105 O.2     1  ZINC000541000201   -0.5300
     10 C10        -0.3839    3.4747   53.8003 C.ar    1  ZINC000541000201   -0.2300
     11 C11        -1.7360    3.4421   53.4294 C.ar    1  ZINC000541000201    0.0200
     12 C12        -2.6856    3.7327   54.3876 C.ar    1  ZINC000541000201   -0.2000
     13 C13        -2.2748    4.0459   55.6794 C.ar    1  ZINC000541000201    0.3500
     14 O14        -3.2028    4.3321   56.6242 O.3     1  ZINC000541000201   -0.2900
     15 C15        -2.7255    4.8600   57.8635 C.3     1  ZINC000541000201    0.0800
     16 C16        -3.9089    5.3403   58.7398 C.3     1  ZINC000541000201   -0.1400
     17 C17        -3.3180    5.2874   60.1707 C.3     1  ZINC000541000201   -0.1200
     18 C18        -2.4363    4.0216   60.1694 C.3     1  ZINC000541000201   -0.1200
     19 C19        -2.0596    3.7498   58.7024 C.3     1  ZINC000541000201   -0.1200
     20 N20        -0.9898    4.0680   55.9988 N.ar    1  ZINC000541000201   -0.5400
     21 C21        -0.0511    3.7922   55.1180 C.ar    1  ZINC000541000201    0.1800
     22 C22         2.1973    1.0424   51.1451 C.ar    1  ZINC000541000201   -0.1300
     23 C23         2.3576    1.2873   49.7937 C.ar    1  ZINC000541000201   -0.0700
     24 C24         1.8784    0.3835   48.8653 C.ar    1  ZINC000541000201   -0.1300
     25 C25         1.2364   -0.7708   49.2898 C.ar    1  ZINC000541000201    0.1200
     26 O26         0.7645   -1.6615   48.3784 O.3     1  ZINC000541000201   -0.3200
     27 C27        -0.6426   -1.6511   48.1294 C.3     1  ZINC000541000201    0.4100
     28 F28        -1.2645   -2.6178   48.9270 F       1  ZINC000541000201   -0.2000
     29 F29        -1.1613   -0.3887   48.4370 F       1  ZINC000541000201   -0.2000
     30 C30         1.0772   -1.0142   50.6463 C.ar    1  ZINC000541000201   -0.1900
     31 C31         1.5624   -0.1096   51.5708 C.ar    1  ZINC000541000201   -0.0500
     32 H32         6.4902    2.0029   50.8936 H       1  ZINC000541000201    0.1000
     33 H33         5.3186    0.6738   50.7226 H       1  ZINC000541000201    0.0600
     34 H34         4.7889    2.3599   50.5109 H       1  ZINC000541000201    0.0600
     35 H35         1.6997    1.9208   54.0141 H       1  ZINC000541000201    0.4100
     36 H36        -2.0268    3.1960   52.4188 H       1  ZINC000541000201    0.1600
     37 H37        -3.7362    3.7175   54.1373 H       1  ZINC000541000201    0.1500
     38 H38        -2.0247    5.6755   57.6850 H       1  ZINC000541000201    0.1000
     39 H39        -4.1953    6.3587   58.4776 H       1  ZINC000541000201    0.0700
     40 H40        -4.7579    4.6630   58.6472 H       1  ZINC000541000201    0.0800
     41 H41        -2.7137    6.1731   60.3668 H       1  ZINC000541000201    0.0700
     42 H42        -4.1146    5.1968   60.9092 H       1  ZINC000541000201    0.0700
     43 H43        -1.5366    4.1926   60.7604 H       1  ZINC000541000201    0.0700
     44 H44        -2.9945    3.1774   60.5741 H       1  ZINC000541000201    0.0700
     45 H45        -2.4348    2.7737   58.3952 H       1  ZINC000541000201    0.0800
     46 H46        -0.9770    3.7889   58.5815 H       1  ZINC000541000201    0.0700
     47 H47         0.9866    3.8200   55.4158 H       1  ZINC000541000201    0.1600
     48 H48         2.8575    2.1859   49.4638 H       1  ZINC000541000201    0.1300
     49 H49         2.0032    0.5755   47.8099 H       1  ZINC000541000201    0.1400
     50 H50        -0.8274   -1.8737   47.0785 H       1  ZINC000541000201    0.1900
     51 H51         0.5774   -1.9119   50.9792 H       1  ZINC000541000201    0.1400
     52 H52         1.4391   -0.2989   52.6269 H       1  ZINC000541000201    0.1400
@<TRIPOS>BOND
     1     1     2    1
     2     1    32    1
     3     1    33    1
     4     1    34    1
     5     2     3    1
     6     3     4    2
     7     3     5    1
     8     5     6    1
     9     5     7    1
    10     5    22    1
    11     7     8   am
    12     7    35    1
    13     8     9    2
    14     8    10    1
    15    10    21   ar
    16    10    11   ar
    17    11    12   ar
    18    11    36    1
    19    12    13   ar
    20    12    37    1
    21    13    14    1
    22    13    20   ar
    23    14    15    1
    24    15    19    1
    25    15    16    1
    26    15    38    1
    27    16    17    1
    28    16    39    1
    29    16    40    1
    30    17    18    1
    31    17    41    1
    32    17    42    1
    33    18    19    1
    34    18    43    1
    35    18    44    1
    36    19    45    1
    37    19    46    1
    38    20    21   ar
    39    21    47    1
    40    22    31   ar
    41    22    23   ar
    42    23    24   ar
    43    23    48    1
    44    24    25   ar
    45    24    49    1
    46    25    26    1
    47    25    30   ar
    48    26    27    1
    49    27    28    1
    50    27    29    1
    51    27    50    1
    52    30    31   ar
    53    30    51    1
    54    31    52    1
@<TRIPOS>SUBSTRUCTURE
     1 ZINC000541000201        1 TEMP              0 ****  ****    0 ROOT


##########                                Name:    ZINC000523863446
##########                DOCK_Rotatable_Bonds:                  10
##########                         Heavy_Atoms:                  29
##########                    Molecular_Weight:             396.533
##########                DOCK_Rotatable_Bonds:                  10
##########                       Formal_Charge:          -0.0200008
##########                     HBond_Acceptors:                   6
##########                        HBond_Donors:                   1
##########                         Heavy_Atoms:                  29
##########                          Grid_Score:          -31.264376
##########                     Grid_vdw_energy:          -28.565428
##########                      Grid_es_energy:           -2.698948
##########           Internal_energy_repulsive:           18.259998

@<TRIPOS>MOLECULE
ZINC000523863446
 61 63 1 0 0
SMALL
USER_CHARGES


@<TRIPOS>ATOM
      1 C1         -7.7921    0.0684   64.5156 C.3     1  ZINC000523863446   -0.1700
      2 C2         -8.6365    1.0433   63.6925 C.3     1  ZINC000523863446    0.1500
      3 H3         -8.0522    1.9379   63.4772 H       1  ZINC000523863446    0.1300
      4 C4         -9.0442    0.3863   62.3990 C.2     1  ZINC000523863446    0.5100
      5 O5         -9.0233   -0.8222   62.2998 O.2     1  ZINC000523863446   -0.5100
      6 N6         -9.4320    1.1418   61.3524 N.am    1  ZINC000523863446   -0.6000
      7 C7         -9.4554    2.6017   61.4716 C.3     1  ZINC000523863446    0.0700
      8 C8         -9.8300    0.5029   60.0955 C.3     1  ZINC000523863446    0.1000
      9 C9         -8.8602    0.8868   59.0077 C.2     1  ZINC000523863446    0.5000
     10 O10        -7.6734    0.9524   59.2489 O.2     1  ZINC000523863446   -0.5200
     11 N11        -9.3118    1.1575   57.7671 N.am    1  ZINC000523863446   -0.7200
     12 C12        -8.3688    1.5290   56.7093 C.3     1  ZINC000523863446    0.1900
     13 H13        -7.3610    1.2327   57.0003 H       1  ZINC000523863446    0.1000
     14 C14        -8.4134    3.0433   56.4952 C.3     1  ZINC000523863446   -0.1200
     15 C15        -7.0377    3.5348   56.0405 C.3     1  ZINC000523863446   -0.0900
     16 C16        -7.2085    4.7270   55.0967 C.3     1  ZINC000523863446   -0.1200
     17 C17        -5.8328    5.2186   54.6419 C.3     1  ZINC000523863446   -0.1200
     18 C18        -5.0153    5.6471   55.8621 C.3     1  ZINC000523863446   -0.1200
     19 C19        -4.8446    4.4549   56.8059 C.3     1  ZINC000523863446   -0.1200
     20 C20        -6.2202    3.9634   57.2607 C.3     1  ZINC000523863446   -0.1100
     21 C21        -8.7484    0.8294   55.4296 C.ar    1  ZINC000523863446   -0.0900
     22 C22        -7.7643    0.3892   54.5643 C.ar    1  ZINC000523863446   -0.1100
     23 C23        -8.1125   -0.2525   53.3906 C.ar    1  ZINC000523863446   -0.1200
     24 C24        -9.4449   -0.4543   53.0822 C.ar    1  ZINC000523863446   -0.1200
     25 C25       -10.4290   -0.0149   53.9478 C.ar    1  ZINC000523863446   -0.1200
     26 C26       -10.0806    0.6230   55.1237 C.ar    1  ZINC000523863446   -0.1000
     27 N27        -9.8340    1.4131   64.4512 N.pl3   1  ZINC000523863446   -0.3600
     28 C28        -9.8781    2.2581   65.5025 C.2     1  ZINC000523863446    0.0600
     29 C29       -11.1636    2.3315   65.9188 C.2     1  ZINC000523863446   -0.2700
     30 C30       -11.9312    1.5031   65.0938 C.2     1  ZINC000523863446    0.0500
     31 N31       -11.1361    0.9567   64.2098 N.2     1  ZINC000523863446   -0.2900
     32 H32        -8.3764   -0.8262   64.7310 H       1  ZINC000523863446    0.0700
     33 H33        -6.9012   -0.2066   63.9512 H       1  ZINC000523863446    0.1000
     34 H34        -7.4971    0.5437   65.4512 H       1  ZINC000523863446    0.0800
     35 H35        -8.4888    3.0064   61.1716 H       1  ZINC000523863446    0.0700
     36 H36       -10.2349    3.0065   60.8261 H       1  ZINC000523863446    0.0800
     37 H37        -9.6601    2.8785   62.5058 H       1  ZINC000523863446    0.0800
     38 H38        -9.8253   -0.5799   60.2209 H       1  ZINC000523863446    0.1100
     39 H39       -10.8322    0.8326   59.8218 H       1  ZINC000523863446    0.1100
     40 H40       -10.2611    1.1063   57.5746 H       1  ZINC000523863446    0.4000
     41 H41        -9.1546    3.2808   55.7321 H       1  ZINC000523863446    0.0800
     42 H42        -8.6839    3.5346   57.4298 H       1  ZINC000523863446    0.0700
     43 H43        -6.5184    2.7305   55.5195 H       1  ZINC000523863446    0.0700
     44 H44        -7.7908    4.4217   54.2275 H       1  ZINC000523863446    0.0600
     45 H45        -7.7278    5.5313   55.6177 H       1  ZINC000523863446    0.0600
     46 H46        -5.3135    4.4142   54.1209 H       1  ZINC000523863446    0.0600
     47 H47        -5.9544    6.0679   53.9696 H       1  ZINC000523863446    0.0600
     48 H48        -4.0353    5.9973   55.5381 H       1  ZINC000523863446    0.0600
     49 H49        -5.5346    6.4514   56.3831 H       1  ZINC000523863446    0.0600
     50 H50        -4.3253    3.6506   56.2848 H       1  ZINC000523863446    0.0600
     51 H51        -4.2621    4.7603   57.6752 H       1  ZINC000523863446    0.0600
     52 H52        -6.7394    4.7677   57.7816 H       1  ZINC000523863446    0.0600
     53 H53        -6.0985    3.1142   57.9329 H       1  ZINC000523863446    0.0600
     54 H54        -6.7234    0.5468   54.8053 H       1  ZINC000523863446    0.1200
     55 H55        -7.3437   -0.5959   52.7142 H       1  ZINC000523863446    0.1200
     56 H56        -9.7169   -0.9551   52.1647 H       1  ZINC000523863446    0.1200
     57 H57       -11.4698   -0.1723   53.7067 H       1  ZINC000523863446    0.1200
     58 H58       -10.8495    0.9664   55.8000 H       1  ZINC000523863446    0.1200
     59 H59        -9.0381    2.7817   65.9344 H       1  ZINC000523863446    0.1700
     60 H60       -11.5317    2.9246   66.7429 H       1  ZINC000523863446    0.1500
     61 H61       -12.9969    1.3455   65.1700 H       1  ZINC000523863446    0.1800
@<TRIPOS>BOND
     1     1     2    1
     2     1    32    1
     3     1    33    1
     4     1    34    1
     5     2     3    1
     6     2     4    1
     7     2    27    1
     8     4     5    2
     9     4     6   am
    10     6     7    1
    11     6     8    1
    12     7    35    1
    13     7    36    1
    14     7    37    1
    15     8     9    1
    16     8    38    1
    17     8    39    1
    18     9    10    2
    19     9    11   am
    20    11    12    1
    21    11    40    1
    22    12    13    1
    23    12    14    1
    24    12    21    1
    25    14    15    1
    26    14    41    1
    27    14    42    1
    28    15    20    1
    29    15    16    1
    30    15    43    1
    31    16    17    1
    32    16    44    1
    33    16    45    1
    34    17    18    1
    35    17    46    1
    36    17    47    1
    37    18    19    1
    38    18    48    1
    39    18    49    1
    40    19    20    1
    41    19    50    1
    42    19    51    1
    43    20    52    1
    44    20    53    1
    45    21    26   ar
    46    21    22   ar
    47    22    23   ar
    48    22    54    1
    49    23    24   ar
    50    23    55    1
    51    24    25   ar
    52    24    56    1
    53    25    26   ar
    54    25    57    1
    55    26    58    1
    56    27    31    1
    57    27    28    1
    58    28    29    2
    59    28    59    1
    60    29    30    1
    61    29    60    1
    62    30    31    2
    63    30    61    1
@<TRIPOS>SUBSTRUCTURE
     1 ZINC000523863446        1 TEMP              0 ****  ****    0 ROOT


##########                                Name:    ZINC000549659617
##########                DOCK_Rotatable_Bonds:                   9
##########                         Heavy_Atoms:                  28
##########                    Molecular_Weight:              418.48
##########                DOCK_Rotatable_Bonds:                   9
##########                       Formal_Charge:          0.00999956
##########                     HBond_Acceptors:                   9
##########                        HBond_Donors:                   1
##########                         Heavy_Atoms:                  28
##########                          Grid_Score:          -31.247061
##########                     Grid_vdw_energy:          -29.481321
##########                      Grid_es_energy:           -1.765739
##########           Internal_energy_repulsive:           27.701767

@<TRIPOS>MOLECULE
ZINC000549659617
 53 55 1 0 0
SMALL
USER_CHARGES


@<TRIPOS>ATOM
      1 C1        -10.6183   -1.9735   59.1915 C.3     1  ZINC000549659617   -0.1500
      2 C2        -10.5721   -1.0342   60.3984 C.3     1  ZINC000549659617   -0.1500
      3 C3         -9.1187   -0.8315   60.8314 C.3     1  ZINC000549659617    0.1100
      4 N4         -9.0480    0.2563   61.8101 N.am    1  ZINC000549659617   -0.6100
      5 C5         -8.8379    1.5219   61.3970 C.2     1  ZINC000549659617    0.7100
      6 O6         -8.7808    2.4250   62.2091 O.2     1  ZINC000549659617   -0.5700
      7 N7         -8.6911    1.7864   60.0836 N.am    1  ZINC000549659617   -0.7400
      8 C8         -8.4644    3.1623   59.6344 C.3     1  ZINC000549659617    0.2300
      9 H9         -7.8356    3.6818   60.3576 H       1  ZINC000549659617    0.1100
     10 C10        -7.7785    3.1461   58.2926 C.ar    1  ZINC000549659617   -0.0900
     11 C11        -6.6082    3.8575   58.1062 C.ar    1  ZINC000549659617   -0.0800
     12 C12        -5.9789    3.8426   56.8752 C.ar    1  ZINC000549659617   -0.1100
     13 C13        -6.5199    3.1160   55.8313 C.ar    1  ZINC000549659617   -0.0700
     14 C14        -7.6901    2.4038   56.0180 C.ar    1  ZINC000549659617   -0.1800
     15 C15        -8.2801    1.6121   54.8797 C.3     1  ZINC000549659617    0.5100
     16 F16        -8.2019    2.3612   53.7007 F       1  ZINC000549659617   -0.1800
     17 F17        -7.5666    0.4190   54.7223 F       1  ZINC000549659617   -0.1700
     18 F18        -9.6196    1.3209   55.1591 F       1  ZINC000549659617   -0.1700
     19 C19        -8.3168    2.4152   57.2498 C.ar    1  ZINC000549659617   -0.0500
     20 C20        -9.8066    3.8867   59.5124 C.3     1  ZINC000549659617   -0.1700
     21 C21       -10.1422    4.9357   60.5743 C.3     1  ZINC000549659617   -0.1700
     22 C22        -9.7767    5.3740   59.1547 C.3     1  ZINC000549659617   -0.1800
     23 C23        -9.2059   -0.0315   63.2379 C.3     1  ZINC000549659617    0.1700
     24 H24        -9.3457   -1.1017   63.3894 H       1  ZINC000549659617    0.1100
     25 C25       -10.4106    0.7424   63.8014 C.3     1  ZINC000549659617   -0.1400
     26 C26       -10.3509    0.6970   65.3412 C.3     1  ZINC000549659617   -0.5900
     27 S27        -8.5742    0.5336   65.7442 S.o2    1  ZINC000549659617    2.3900
     28 O28        -8.1176    1.7327   66.3549 O.2     1  ZINC000549659617   -0.9300
     29 O29        -8.3490   -0.7158   66.3825 O.2     1  ZINC000549659617   -0.9400
     30 C30        -7.9588    0.4570   64.0190 C.3     1  ZINC000549659617   -0.6100
     31 H31       -11.6537   -2.1180   58.8830 H       1  ZINC000549659617    0.0600
     32 H32       -10.0518   -1.5366   58.3693 H       1  ZINC000549659617    0.0600
     33 H33       -10.1824   -2.9351   59.4626 H       1  ZINC000549659617    0.0600
     34 H34       -11.0080   -0.0726   60.1273 H       1  ZINC000549659617    0.0700
     35 H35       -11.1387   -1.4712   61.2207 H       1  ZINC000549659617    0.0700
     36 H36        -8.7421   -1.7501   61.2813 H       1  ZINC000549659617    0.0800
     37 H37        -8.5125   -0.5777   59.9618 H       1  ZINC000549659617    0.0900
     38 H38        -8.7355    1.0658   59.4358 H       1  ZINC000549659617    0.4000
     39 H39        -6.1855    4.4251   58.9219 H       1  ZINC000549659617    0.1300
     40 H40        -5.0648    4.3990   56.7293 H       1  ZINC000549659617    0.1400
     41 H41        -6.0287    3.1050   54.8695 H       1  ZINC000549659617    0.1400
     42 H42        -9.2309    1.8589   57.3957 H       1  ZINC000549659617    0.1400
     43 H43       -10.6284    3.2902   59.1163 H       1  ZINC000549659617    0.1100
     44 H44       -11.1852    5.0295   60.8771 H       1  ZINC000549659617    0.0900
     45 H45        -9.4069    5.1100   61.3598 H       1  ZINC000549659617    0.0900
     46 H46        -8.8009    5.8364   59.0063 H       1  ZINC000549659617    0.1200
     47 H47       -10.5791    5.7560   58.5235 H       1  ZINC000549659617    0.0900
     48 H48       -10.3715    1.7780   63.4636 H       1  ZINC000549659617    0.1100
     49 H49       -11.3362    0.2812   63.4568 H       1  ZINC000549659617    0.0900
     50 H50       -10.7515    1.6190   65.7629 H       1  ZINC000549659617    0.1400
     51 H51       -10.9047   -0.1636   65.7163 H       1  ZINC000549659617    0.1400
     52 H52        -7.1413   -0.2586   63.9313 H       1  ZINC000549659617    0.1400
     53 H53        -7.6494    1.4437   63.6745 H       1  ZINC000549659617    0.1600
@<TRIPOS>BOND
     1     1     2    1
     2     1    31    1
     3     1    32    1
     4     1    33    1
     5     2     3    1
     6     2    34    1
     7     2    35    1
     8     3     4    1
     9     3    36    1
    10     3    37    1
    11     4     5   am
    12     4    23    1
    13     5     6    2
    14     5     7   am
    15     7     8    1
    16     7    38    1
    17     8     9    1
    18     8    10    1
    19     8    20    1
    20    10    19   ar
    21    10    11   ar
    22    11    12   ar
    23    11    39    1
    24    12    13   ar
    25    12    40    1
    26    13    14   ar
    27    13    41    1
    28    14    15    1
    29    14    19   ar
    30    15    16    1
    31    15    17    1
    32    15    18    1
    33    19    42    1
    34    20    22    1
    35    20    21    1
    36    20    43    1
    37    21    22    1
    38    21    44    1
    39    21    45    1
    40    22    46    1
    41    22    47    1
    42    23    24    1
    43    23    30    1
    44    23    25    1
    45    25    26    1
    46    25    48    1
    47    25    49    1
    48    26    27    1
    49    26    50    1
    50    26    51    1
    51    27    28    2
    52    27    29    2
    53    27    30    1
    54    30    52    1
    55    30    53    1
@<TRIPOS>SUBSTRUCTURE
     1 ZINC000549659617        1 TEMP              0 ****  ****    0 ROOT


##########                                Name:    ZINC000499369364
##########                DOCK_Rotatable_Bonds:                   9
##########                         Heavy_Atoms:                  25
##########                    Molecular_Weight:             384.527
##########                DOCK_Rotatable_Bonds:                   9
##########                       Formal_Charge:        -5.88596e-07
##########                     HBond_Acceptors:                  10
##########                        HBond_Donors:                   1
##########                         Heavy_Atoms:                  25
##########                          Grid_Score:          -31.244390
##########                     Grid_vdw_energy:          -30.427303
##########                      Grid_es_energy:           -0.817088
##########           Internal_energy_repulsive:           16.350569

@<TRIPOS>MOLECULE
ZINC000499369364
 49 51 1 0 0
SMALL
USER_CHARGES


@<TRIPOS>ATOM
      1 C1        -13.5343   -0.4197   52.7250 C.3     1  ZINC000499369364   -0.1500
      2 C2        -12.9814    1.0068   52.7025 C.3     1  ZINC000499369364   -0.1000
      3 C3        -12.7601    1.4906   54.1370 C.3     1  ZINC000499369364   -0.1500
      4 C4        -11.6512    1.0261   51.9468 C.3     1  ZINC000499369364    0.1500
      5 H5        -11.6042    0.1715   51.2718 H       1  ZINC000499369364    0.0900
      6 C6        -11.5424    2.3208   51.1388 C.3     1  ZINC000499369364   -0.1700
      7 N7        -10.5446    0.9537   52.9042 N.am    1  ZINC000499369364   -0.7200
      8 C8         -9.5779    0.0275   52.7480 C.2     1  ZINC000499369364    0.5100
      9 O9         -9.6248   -0.7467   51.8157 O.2     1  ZINC000499369364   -0.5100
     10 C10        -8.4387   -0.0459   53.7318 C.3     1  ZINC000499369364    0.1200
     11 H11        -7.8308   -0.9199   53.4979 H       1  ZINC000499369364    0.1200
     12 C12        -7.5670    1.2212   53.5780 C.3     1  ZINC000499369364   -0.0800
     13 S13        -8.2148    2.2739   54.9439 S.3     1  ZINC000499369364   -0.2400
     14 C14        -8.5972    0.8419   56.0355 C.3     1  ZINC000499369364    0.1400
     15 N15        -8.9862   -0.2015   55.0708 N.am    1  ZINC000499369364   -0.6000
     16 C16        -9.7904   -1.2303   55.4040 C.2     1  ZINC000499369364    0.5600
     17 O17       -10.0818   -2.0656   54.5744 O.2     1  ZINC000499369364   -0.5000
     18 C18       -10.3277   -1.3427   56.8075 C.3     1  ZINC000499369364   -0.1500
     19 S19       -11.1039   -2.9629   57.0283 S.3     1  ZINC000499369364    0.1300
     20 C20       -12.0192   -2.6651   58.5042 C.2     1  ZINC000499369364    0.2000
     21 N21       -11.5216   -2.4644   59.7053 N.2     1  ZINC000499369364   -0.3400
     22 N22       -12.4644   -2.2786   60.5573 N.2     1  ZINC000499369364   -0.0300
     23 N23       -13.6131   -2.3452   59.9761 N.2     1  ZINC000499369364   -0.0800
     24 N24       -13.3668   -2.5940   58.6146 N.pl3   1  ZINC000499369364   -0.3300
     25 C25       -14.3563   -2.7515   57.5459 C.3     1  ZINC000499369364    0.0500
     26 C26       -14.4647   -4.1248   56.8802 C.3     1  ZINC000499369364   -0.1500
     27 C27       -15.5654   -3.6454   57.8287 C.3     1  ZINC000499369364   -0.1600
     28 H28       -14.4820   -0.4336   53.2634 H       1  ZINC000499369364    0.0600
     29 H29       -13.6919   -0.7644   51.7030 H       1  ZINC000499369364    0.0600
     30 H30       -12.8229   -1.0773   53.2246 H       1  ZINC000499369364    0.0600
     31 H31       -13.6927    1.6644   52.2029 H       1  ZINC000499369364    0.0800
     32 H32       -13.7077    1.4767   54.6754 H       1  ZINC000499369364    0.0600
     33 H33       -12.0487    0.8330   54.6366 H       1  ZINC000499369364    0.0600
     34 H34       -12.3660    2.5068   54.1210 H       1  ZINC000499369364    0.0500
     35 H35       -11.5894    3.1754   51.8138 H       1  ZINC000499369364    0.0600
     36 H36       -10.5947    2.3346   50.6005 H       1  ZINC000499369364    0.0600
     37 H37       -12.3657    2.3748   50.4265 H       1  ZINC000499369364    0.0700
     38 H38       -10.5077    1.5721   53.6506 H       1  ZINC000499369364    0.4000
     39 H39        -6.5120    0.9913   53.7276 H       1  ZINC000499369364    0.1200
     40 H40        -7.7296    1.6932   52.6091 H       1  ZINC000499369364    0.1300
     41 H41        -7.7150    0.5393   56.5996 H       1  ZINC000499369364    0.1100
     42 H42        -9.4243    1.0765   56.7056 H       1  ZINC000499369364    0.1200
     43 H43        -9.5100   -1.2316   57.5196 H       1  ZINC000499369364    0.1300
     44 H44       -11.0667   -0.5597   56.9775 H       1  ZINC000499369364    0.1300
     45 H45       -14.5148   -1.8741   56.9189 H       1  ZINC000499369364    0.1600
     46 H46       -14.6944   -4.1512   55.8150 H       1  ZINC000499369364    0.1200
     47 H47       -13.7998   -4.9111   57.2375 H       1  ZINC000499369364    0.1200
     48 H48       -15.6245   -4.1163   58.8099 H       1  ZINC000499369364    0.1100
     49 H49       -16.5192   -3.3562   57.3875 H       1  ZINC000499369364    0.1200
@<TRIPOS>BOND
     1     1     2    1
     2     1    28    1
     3     1    29    1
     4     1    30    1
     5     2     3    1
     6     2     4    1
     7     2    31    1
     8     3    32    1
     9     3    33    1
    10     3    34    1
    11     4     5    1
    12     4     6    1
    13     4     7    1
    14     6    35    1
    15     6    36    1
    16     6    37    1
    17     7     8   am
    18     7    38    1
    19     8     9    2
    20     8    10    1
    21    10    11    1
    22    10    15    1
    23    10    12    1
    24    12    13    1
    25    12    39    1
    26    12    40    1
    27    13    14    1
    28    14    15    1
    29    14    41    1
    30    14    42    1
    31    15    16   am
    32    16    17    2
    33    16    18    1
    34    18    19    1
    35    18    43    1
    36    18    44    1
    37    19    20    1
    38    20    24    1
    39    20    21    2
    40    21    22    1
    41    22    23    2
    42    23    24    1
    43    24    25    1
    44    25    27    1
    45    25    26    1
    46    25    45    1
    47    26    27    1
    48    26    46    1
    49    26    47    1
    50    27    48    1
    51    27    49    1
@<TRIPOS>SUBSTRUCTURE
     1 ZINC000499369364        1 TEMP              0 ****  ****    0 ROOT


##########                                Name:    ZINC000466160459
##########                DOCK_Rotatable_Bonds:                   9
##########                         Heavy_Atoms:                  30
##########                    Molecular_Weight:             420.512
##########                DOCK_Rotatable_Bonds:                   9
##########                       Formal_Charge:          -0.0300007
##########                     HBond_Acceptors:                  10
##########                        HBond_Donors:                   2
##########                         Heavy_Atoms:                  30
##########                          Grid_Score:          -31.241440
##########                     Grid_vdw_energy:          -29.522657
##########                      Grid_es_energy:           -1.718783
##########           Internal_energy_repulsive:           96.964417

@<TRIPOS>MOLECULE
ZINC000466160459
 62 64 1 0 0
SMALL
USER_CHARGES


@<TRIPOS>ATOM
      1 C1         -7.6930    0.1492   64.4592 C.3     1  ZINC000466160459    0.0300
      2 O2         -7.6908   -0.1149   63.0548 O.3     1  ZINC000466160459   -0.3900
      3 C3         -8.9410    0.1436   62.4128 C.3     1  ZINC000466160459    0.0500
      4 C4         -8.8322   -0.2026   60.9264 C.3     1  ZINC000466160459    0.1200
      5 N5        -10.1082    0.0801   60.2645 N.am    1  ZINC000466160459   -0.7300
      6 C6        -10.1270    0.4619   58.9721 C.2     1  ZINC000466160459    0.5200
      7 O7         -9.0875    0.5700   58.3567 O.2     1  ZINC000466160459   -0.5200
      8 C8        -11.4395    0.7545   58.2918 C.3     1  ZINC000466160459   -0.1300
      9 H9        -11.9939    1.4917   58.8725 H       1  ZINC000466160459    0.1100
     10 C10       -12.2586   -0.5340   58.1863 C.3     1  ZINC000466160459   -0.1000
     11 C11       -11.4668   -1.5810   57.3998 C.3     1  ZINC000466160459   -0.1500
     12 C12       -11.2031   -1.0585   55.9840 C.3     1  ZINC000466160459    0.1600
     13 H13       -12.1482   -0.9543   55.4511 H       1  ZINC000466160459    0.0700
     14 C14       -10.2978   -2.0390   55.2358 C.3     1  ZINC000466160459   -0.1400
     15 N15       -10.5438    0.2511   56.0784 N.am    1  ZINC000466160459   -0.6200
     16 C16        -9.3819    0.4829   55.4359 C.2     1  ZINC000466160459    0.7100
     17 O17        -8.8695   -0.3960   54.7702 O.2     1  ZINC000466160459   -0.5500
     18 N18        -8.7881    1.6890   55.5313 N.am    1  ZINC000466160459   -0.7300
     19 C19        -7.5252    1.9410   54.8330 C.3     1  ZINC000466160459    0.1600
     20 H20        -6.9329    1.0261   54.8145 H       1  ZINC000466160459    0.1300
     21 C21        -6.7474    3.0355   55.5678 C.3     1  ZINC000466160459   -0.1400
     22 C22        -7.4635    4.3728   55.3437 C.3     1  ZINC000466160459   -0.1400
     23 C23        -7.3368    4.7550   53.8684 C.3     1  ZINC000466160459    0.1100
     24 N24        -7.7426    3.6438   53.0169 N.am    1  ZINC000466160459   -0.5200
     25 C25        -8.0803    3.9254   51.6861 C.2     1  ZINC000466160459    0.2800
     26 N26        -9.2860    4.1775   51.2337 N.2     1  ZINC000466160459   -0.2600
     27 N27        -9.1961    4.4063   49.8547 N.pl3   1  ZINC000466160459   -0.3800
     28 C28       -10.3122    4.7235   48.9603 C.3     1  ZINC000466160459    0.1000
     29 C29        -7.9012    4.2838   49.4940 C.2     1  ZINC000466160459    0.0700
     30 C30        -7.1870    3.9930   50.6051 C.2     1  ZINC000466160459   -0.2900
     31 C31        -7.8122    2.3780   53.4251 C.2     1  ZINC000466160459    0.4900
     32 O32        -8.1237    1.5301   52.6156 O.2     1  ZINC000466160459   -0.4700
     33 C33       -11.1754    1.3042   56.8865 C.3     1  ZINC000466160459    0.1200
     34 H34        -6.7086   -0.0716   64.8719 H       1  ZINC000466160459    0.0900
     35 H35        -7.9319    1.1987   64.6311 H       1  ZINC000466160459    0.0400
     36 H36        -8.4401   -0.4779   64.9455 H       1  ZINC000466160459    0.0400
     37 H37        -9.7184   -0.4668   62.8720 H       1  ZINC000466160459    0.0600
     38 H38        -9.1947    1.1980   62.5226 H       1  ZINC000466160459    0.0700
     39 H39        -8.0454    0.3980   60.4700 H       1  ZINC000466160459    0.0800
     40 H40        -8.5923   -1.2601   60.8162 H       1  ZINC000466160459    0.0800
     41 H41       -10.9397   -0.0076   60.7564 H       1  ZINC000466160459    0.4000
     42 H42       -12.4688   -0.9134   59.1864 H       1  ZINC000466160459    0.0700
     43 H43       -13.1970   -0.3265   57.6722 H       1  ZINC000466160459    0.0700
     44 H44       -10.5172   -1.7706   57.9003 H       1  ZINC000466160459    0.1000
     45 H45       -12.0409   -2.5059   57.3452 H       1  ZINC000466160459    0.0700
     46 H46       -10.7397   -3.0350   55.2633 H       1  ZINC000466160459    0.0400
     47 H47       -10.1915   -1.7173   54.1998 H       1  ZINC000466160459    0.0800
     48 H48        -9.3172   -2.0634   55.7112 H       1  ZINC000466160459    0.0600
     49 H49        -9.1970    2.3903   56.0624 H       1  ZINC000466160459    0.3900
     50 H50        -6.7156    2.8104   56.6338 H       1  ZINC000466160459    0.0900
     51 H51        -5.7327    3.0922   55.1738 H       1  ZINC000466160459    0.0900
     52 H52        -8.5167    4.2721   55.6061 H       1  ZINC000466160459    0.0700
     53 H53        -7.0022    5.1428   55.9619 H       1  ZINC000466160459    0.1000
     54 H54        -7.9721    5.6166   53.6636 H       1  ZINC000466160459    0.0900
     55 H55        -6.3009    5.0154   53.6515 H       1  ZINC000466160459    0.0800
     56 H56       -10.4452    5.8044   48.9145 H       1  ZINC000466160459    0.0700
     57 H57       -10.0981    4.3411   47.9623 H       1  ZINC000466160459    0.0900
     58 H58       -11.2238    4.2611   49.3387 H       1  ZINC000466160459    0.0900
     59 H59        -7.5052    4.4013   48.4962 H       1  ZINC000466160459    0.1800
     60 H60        -6.1198    3.8335   50.6512 H       1  ZINC000466160459    0.1500
     61 H61       -12.1183    1.6011   56.4271 H       1  ZINC000466160459    0.0900
     62 H62       -10.5100    2.1652   56.9493 H       1  ZINC000466160459    0.0700
@<TRIPOS>BOND
     1     1     2    1
     2     1    34    1
     3     1    35    1
     4     1    36    1
     5     2     3    1
     6     3     4    1
     7     3    37    1
     8     3    38    1
     9     4     5    1
    10     4    39    1
    11     4    40    1
    12     5     6   am
    13     5    41    1
    14     6     7    2
    15     6     8    1
    16     8     9    1
    17     8    33    1
    18     8    10    1
    19    10    11    1
    20    10    42    1
    21    10    43    1
    22    11    12    1
    23    11    44    1
    24    11    45    1
    25    12    13    1
    26    12    14    1
    27    12    15    1
    28    14    46    1
    29    14    47    1
    30    14    48    1
    31    15    16   am
    32    15    33    1
    33    16    17    2
    34    16    18   am
    35    18    19    1
    36    18    49    1
    37    19    20    1
    38    19    31    1
    39    19    21    1
    40    21    22    1
    41    21    50    1
    42    21    51    1
    43    22    23    1
    44    22    52    1
    45    22    53    1
    46    23    24    1
    47    23    54    1
    48    23    55    1
    49    24    25    1
    50    24    31   am
    51    25    30    1
    52    25    26    2
    53    26    27    1
    54    27    28    1
    55    27    29    1
    56    28    56    1
    57    28    57    1
    58    28    58    1
    59    29    30    2
    60    29    59    1
    61    30    60    1
    62    31    32    2
    63    33    61    1
    64    33    62    1
@<TRIPOS>SUBSTRUCTURE
     1 ZINC000466160459        1 TEMP              0 ****  ****    0 ROOT


##########                                Name:    ZINC000032503012
##########                DOCK_Rotatable_Bonds:                   8
##########                         Heavy_Atoms:                  27
##########                    Molecular_Weight:             390.503
##########                DOCK_Rotatable_Bonds:                   8
##########                       Formal_Charge:           0.0099995
##########                     HBond_Acceptors:                   7
##########                        HBond_Donors:                   2
##########                         Heavy_Atoms:                  27
##########                          Grid_Score:          -31.191490
##########                     Grid_vdw_energy:          -29.556358
##########                      Grid_es_energy:           -1.635131
##########           Internal_energy_repulsive:           33.808712

@<TRIPOS>MOLECULE
ZINC000032503012
 53 54 1 0 0
SMALL
USER_CHARGES


@<TRIPOS>ATOM
      1 C1        -12.4436    1.7075   64.5981 C.3     1  ZINC000032503012   -0.1200
      2 C2        -10.9824    1.4488   64.3355 C.ar    1  ZINC000032503012   -0.0500
      3 C3        -10.0828    1.4416   65.3852 C.ar    1  ZINC000032503012   -0.1600
      4 C4         -8.7413    1.2045   65.1476 C.ar    1  ZINC000032503012   -0.0700
      5 C5         -8.2969    0.9742   63.8602 C.ar    1  ZINC000032503012   -0.1500
      6 C6         -9.1979    0.9810   62.8050 C.ar    1  ZINC000032503012    0.1300
      7 O7         -8.7632    0.7543   61.5374 O.3     1  ZINC000032503012   -0.2800
      8 C8         -9.3519    1.5402   60.4994 C.3     1  ZINC000032503012    0.0700
      9 H9        -10.4360    1.4308   60.5311 H       1  ZINC000032503012    0.1100
     10 C10        -8.9817    3.0110   60.7009 C.3     1  ZINC000032503012   -0.1800
     11 C11        -8.8387    1.0717   59.1621 C.2     1  ZINC000032503012    0.5200
     12 O12        -7.9812    0.2158   59.1077 O.2     1  ZINC000032503012   -0.4900
     13 N13        -9.3327    1.6039   58.0267 N.am    1  ZINC000032503012   -0.6700
     14 C14        -8.8562    1.1690   56.7850 C.ar    1  ZINC000032503012    0.1300
     15 C15        -7.7137    1.7395   56.2397 C.ar    1  ZINC000032503012   -0.0600
     16 C16        -7.2459    1.3080   55.0137 C.ar    1  ZINC000032503012   -0.1200
     17 C17        -7.9142    0.3096   54.3295 C.ar    1  ZINC000032503012   -0.0300
     18 C18        -9.0526   -0.2604   54.8698 C.ar    1  ZINC000032503012   -0.6600
     19 S19        -9.9007   -1.5324   53.9938 S.o2    1  ZINC000032503012    2.7000
     20 O20        -9.3679   -1.5362   52.6764 O.2     1  ZINC000032503012   -0.9600
     21 O21        -9.8930   -2.6751   54.8385 O.2     1  ZINC000032503012   -0.9500
     22 N22       -11.4827   -1.0626   53.8571 N.am    1  ZINC000032503012   -1.1100
     23 C23       -11.8198    0.1811   53.1601 C.3     1  ZINC000032503012    0.1700
     24 C24       -10.9679    0.3041   51.8953 C.3     1  ZINC000032503012   -0.1900
     25 C25       -13.3012    0.1661   52.7779 C.3     1  ZINC000032503012   -0.1500
     26 C26       -11.5425    1.3722   54.0796 C.3     1  ZINC000032503012   -0.1800
     27 C27        -9.5218    0.1619   56.0980 C.ar    1  ZINC000032503012   -0.0400
     28 C28       -10.5438    1.2134   63.0467 C.ar    1  ZINC000032503012   -0.2100
     29 H29       -12.9507    0.7626   64.7926 H       1  ZINC000032503012    0.0700
     30 H30       -12.5470    2.3605   65.4647 H       1  ZINC000032503012    0.0700
     31 H31       -12.8900    2.1867   63.7268 H       1  ZINC000032503012    0.0700
     32 H32       -10.4282    1.6218   66.3924 H       1  ZINC000032503012    0.1300
     33 H33        -8.0404    1.1997   65.9692 H       1  ZINC000032503012    0.1300
     34 H34        -7.2491    0.7894   63.6750 H       1  ZINC000032503012    0.1300
     35 H35        -9.3530    3.3499   61.6681 H       1  ZINC000032503012    0.0800
     36 H36        -7.8978    3.1204   60.6691 H       1  ZINC000032503012    0.0800
     37 H37        -9.4309    3.6105   59.9091 H       1  ZINC000032503012    0.0800
     38 H38       -10.0185    2.2886   58.0702 H       1  ZINC000032503012    0.4100
     39 H39        -7.1917    2.5199   56.7733 H       1  ZINC000032503012    0.1400
     40 H40        -6.3574    1.7512   54.5890 H       1  ZINC000032503012    0.1400
     41 H41        -7.5465   -0.0258   53.3709 H       1  ZINC000032503012    0.1500
     42 H42       -12.1862   -1.6109   54.2384 H       1  ZINC000032503012    0.4200
     43 H43       -11.0279   -0.6231   51.3253 H       1  ZINC000032503012    0.0700
     44 H44       -11.3379    1.1293   51.2868 H       1  ZINC000032503012    0.0800
     45 H45        -9.9309    0.4936   52.1726 H       1  ZINC000032503012    0.0700
     46 H46       -13.9082    0.0786   53.6789 H       1  ZINC000032503012    0.0700
     47 H47       -13.5520    1.0915   52.2594 H       1  ZINC000032503012    0.0700
     48 H48       -13.4987   -0.6824   52.1228 H       1  ZINC000032503012    0.0600
     49 H49       -10.4660    1.5013   54.1924 H       1  ZINC000032503012    0.0900
     50 H50       -11.9730    2.2745   53.6452 H       1  ZINC000032503012    0.0700
     51 H51       -11.9908    1.1895   55.0561 H       1  ZINC000032503012    0.0600
     52 H52       -10.4108   -0.2834   56.5194 H       1  ZINC000032503012    0.1400
     53 H53       -11.2470    1.2192   62.2269 H       1  ZINC000032503012    0.1300
@<TRIPOS>BOND
     1     1     2    1
     2     1    29    1
     3     1    30    1
     4     1    31    1
     5     2    28   ar
     6     2     3   ar
     7     3     4   ar
     8     3    32    1
     9     4     5   ar
    10     4    33    1
    11     5     6   ar
    12     5    34    1
    13     6     7    1
    14     6    28   ar
    15     7     8    1
    16     8     9    1
    17     8    10    1
    18     8    11    1
    19    10    35    1
    20    10    36    1
    21    10    37    1
    22    11    12    2
    23    11    13   am
    24    13    14    1
    25    13    38    1
    26    14    27   ar
    27    14    15   ar
    28    15    16   ar
    29    15    39    1
    30    16    17   ar
    31    16    40    1
    32    17    18   ar
    33    17    41    1
    34    18    19    1
    35    18    27   ar
    36    19    20    2
    37    19    21    2
    38    19    22   am
    39    22    23    1
    40    22    42    1
    41    23    24    1
    42    23    25    1
    43    23    26    1
    44    24    43    1
    45    24    44    1
    46    24    45    1
    47    25    46    1
    48    25    47    1
    49    25    48    1
    50    26    49    1
    51    26    50    1
    52    26    51    1
    53    27    52    1
    54    28    53    1
@<TRIPOS>SUBSTRUCTURE
     1 ZINC000032503012        1 TEMP              0 ****  ****    0 ROOT


##########                                Name:    ZINC001289410668
##########                DOCK_Rotatable_Bonds:                  11
##########                         Heavy_Atoms:                  26
##########                    Molecular_Weight:             362.515
##########                DOCK_Rotatable_Bonds:                  11
##########                       Formal_Charge:          -0.0400008
##########                     HBond_Acceptors:                   6
##########                        HBond_Donors:                   1
##########                         Heavy_Atoms:                  26
##########                          Grid_Score:          -31.176126
##########                     Grid_vdw_energy:          -31.404491
##########                      Grid_es_energy:            0.228365
##########           Internal_energy_repulsive:           15.420978

@<TRIPOS>MOLECULE
ZINC001289410668
 60 61 1 0 0
SMALL
USER_CHARGES


@<TRIPOS>ATOM
      1 C1        -13.5334    1.0829   52.4594 C.3     1  ZINC001289410668   -0.1500
      2 C2        -12.5123    0.5835   51.4352 C.3     1  ZINC001289410668   -0.1300
      3 C3        -11.1444    0.4426   52.1058 C.3     1  ZINC001289410668   -0.1200
      4 C4        -11.2241   -0.6135   53.2101 C.3     1  ZINC001289410668   -0.1200
      5 C5         -9.8143   -1.0952   53.5580 C.3     1  ZINC001289410668   -0.1100
      6 C6         -9.1013   -0.0274   54.3900 C.3     1  ZINC001289410668   -0.1400
      7 C7         -9.7182    0.0340   55.7635 C.2     1  ZINC001289410668    0.5100
      8 O8         -9.9423    1.1081   56.2802 O.2     1  ZINC001289410668   -0.5300
      9 N9        -10.0207   -1.1048   56.4179 N.am    1  ZINC001289410668   -0.7200
     10 C10       -10.6221   -1.0451   57.7525 C.3     1  ZINC001289410668    0.1400
     11 H11       -11.4268   -0.3104   57.7836 H       1  ZINC001289410668    0.1100
     12 C12        -9.5518   -0.7424   58.8306 C.3     1  ZINC001289410668    0.0800
     13 N13       -10.1060   -1.2977   60.0789 N.am    1  ZINC001289410668   -0.6200
     14 C14        -9.7859   -0.8993   61.3260 C.2     1  ZINC001289410668    0.5100
     15 O15       -10.3082   -1.4282   62.2843 O.2     1  ZINC001289410668   -0.5100
     16 C16        -8.7793    0.2036   61.5296 C.3     1  ZINC001289410668    0.0900
     17 N17        -8.5077    0.3587   62.9609 N.pl3   1  ZINC001289410668   -0.4500
     18 C18        -7.5622   -0.3152   63.6858 C.2     1  ZINC001289410668   -0.0500
     19 C19        -7.6521    0.1310   64.9534 C.2     1  ZINC001289410668   -0.0200
     20 N20        -8.6258    1.0521   65.0009 N.2     1  ZINC001289410668   -0.4800
     21 C21        -9.1394    1.1974   63.8101 C.2     1  ZINC001289410668    0.2300
     22 C22       -10.2584    2.1384   63.4450 C.3     1  ZINC001289410668   -0.0100
     23 C23       -11.1771    2.3315   64.6532 C.3     1  ZINC001289410668   -0.1400
     24 C24        -9.6733    3.4892   63.0282 C.3     1  ZINC001289410668   -0.1400
     25 C25       -11.0662   -2.3576   59.7378 C.3     1  ZINC001289410668    0.1100
     26 C26       -11.1276   -2.4428   58.1977 C.3     1  ZINC001289410668   -0.1100
     27 H27       -10.4666   -3.2269   57.8282 H       1  ZINC001289410668    0.0900
     28 C28       -12.5632   -2.6808   57.7255 C.3     1  ZINC001289410668   -0.1400
     29 H29       -14.5079    1.1833   51.9817 H       1  ZINC001289410668    0.0500
     30 H30       -13.6030    0.3695   53.2805 H       1  ZINC001289410668    0.0500
     31 H31       -13.2165    2.0516   52.8457 H       1  ZINC001289410668    0.0500
     32 H32       -12.8292   -0.3853   51.0489 H       1  ZINC001289410668    0.0600
     33 H33       -12.4427    1.2970   50.6141 H       1  ZINC001289410668    0.0600
     34 H34       -10.4058    0.1379   51.3644 H       1  ZINC001289410668    0.0600
     35 H35       -10.8516    1.3992   52.5386 H       1  ZINC001289410668    0.0600
     36 H36       -11.6885   -0.1791   54.0954 H       1  ZINC001289410668    0.0600
     37 H37       -11.8211   -1.4571   52.8636 H       1  ZINC001289410668    0.0600
     38 H38        -9.8775   -2.0202   54.1311 H       1  ZINC001289410668    0.0700
     39 H39        -9.2546   -1.2742   52.6399 H       1  ZINC001289410668    0.0700
     40 H40        -8.0446   -0.2804   54.4772 H       1  ZINC001289410668    0.1000
     41 H41        -9.2038    0.9419   53.9020 H       1  ZINC001289410668    0.1000
     42 H42        -9.8404   -1.9638   56.0052 H       1  ZINC001289410668    0.4000
     43 H43        -8.6119   -1.2346   58.5809 H       1  ZINC001289410668    0.0800
     44 H44        -9.4039    0.3333   58.9269 H       1  ZINC001289410668    0.0800
     45 H45        -7.8548   -0.0478   61.0096 H       1  ZINC001289410668    0.1200
     46 H46        -9.1776    1.1370   61.1321 H       1  ZINC001289410668    0.1200
     47 H47        -6.8763   -1.0615   63.3131 H       1  ZINC001289410668    0.1700
     48 H48        -7.0462   -0.1958   65.7856 H       1  ZINC001289410668    0.1700
     49 H49       -10.8303    1.7191   62.6171 H       1  ZINC001289410668    0.0700
     50 H50       -10.6053    2.7508   65.4810 H       1  ZINC001289410668    0.0700
     51 H51       -11.9865    3.0121   64.3891 H       1  ZINC001289410668    0.0600
     52 H52       -11.5939    1.3691   64.9501 H       1  ZINC001289410668    0.0500
     53 H53        -9.1015    3.9085   63.8561 H       1  ZINC001289410668    0.0700
     54 H54        -9.0188    3.3517   62.1674 H       1  ZINC001289410668    0.0600
     55 H55       -10.4826    4.1699   62.7641 H       1  ZINC001289410668    0.0600
     56 H56       -10.7295   -3.3091   60.1491 H       1  ZINC001289410668    0.0800
     57 H57       -12.0503   -2.1076   60.1341 H       1  ZINC001289410668    0.0800
     58 H58       -13.2012   -1.8712   58.0799 H       1  ZINC001289410668    0.0600
     59 H59       -12.5870   -2.7117   56.6362 H       1  ZINC001289410668    0.0600
     60 H60       -12.9243   -3.6289   58.1239 H       1  ZINC001289410668    0.0700
@<TRIPOS>BOND
     1     1     2    1
     2     1    29    1
     3     1    30    1
     4     1    31    1
     5     2     3    1
     6     2    32    1
     7     2    33    1
     8     3     4    1
     9     3    34    1
    10     3    35    1
    11     4     5    1
    12     4    36    1
    13     4    37    1
    14     5     6    1
    15     5    38    1
    16     5    39    1
    17     6     7    1
    18     6    40    1
    19     6    41    1
    20     7     8    2
    21     7     9   am
    22     9    10    1
    23     9    42    1
    24    10    11    1
    25    10    26    1
    26    10    12    1
    27    12    13    1
    28    12    43    1
    29    12    44    1
    30    13    14   am
    31    13    25    1
    32    14    15    2
    33    14    16    1
    34    16    17    1
    35    16    45    1
    36    16    46    1
    37    17    21    1
    38    17    18    1
    39    18    19    2
    40    18    47    1
    41    19    20    1
    42    19    48    1
    43    20    21    2
    44    21    22    1
    45    22    23    1
    46    22    24    1
    47    22    49    1
    48    23    50    1
    49    23    51    1
    50    23    52    1
    51    24    53    1
    52    24    54    1
    53    24    55    1
    54    25    26    1
    55    25    56    1
    56    25    57    1
    57    26    27    1
    58    26    28    1
    59    28    58    1
    60    28    59    1
    61    28    60    1
@<TRIPOS>SUBSTRUCTURE
     1 ZINC001289410668        1 TEMP              0 ****  ****    0 ROOT


##########                                Name:    ZINC001169875900
##########                DOCK_Rotatable_Bonds:                   9
##########                         Heavy_Atoms:                  24
##########                    Molecular_Weight:             329.399
##########                DOCK_Rotatable_Bonds:                   9
##########                       Formal_Charge:          -0.0500002
##########                     HBond_Acceptors:                   6
##########                        HBond_Donors:                   1
##########                         Heavy_Atoms:                  24
##########                          Grid_Score:          -31.171188
##########                     Grid_vdw_energy:          -29.345118
##########                      Grid_es_energy:           -1.826072
##########           Internal_energy_repulsive:            6.563416

@<TRIPOS>MOLECULE
ZINC001169875900
 47 48 1 0 0
SMALL
USER_CHARGES


@<TRIPOS>ATOM
      1 C1         -8.4969   -0.2732   63.2837 C.3     1  ZINC001169875900   -0.1500
      2 C2         -9.3086   -0.4569   61.9998 C.3     1  ZINC001169875900   -0.1300
      3 C3         -8.5576    0.1761   60.8267 C.3     1  ZINC001169875900    0.0700
      4 O4         -9.3088   -0.0082   59.6251 O.3     1  ZINC001169875900   -0.3100
      5 C5         -8.8391    0.5993   58.5053 C.ar    1  ZINC001169875900    0.2700
      6 N6         -7.8580    1.4799   58.6025 N.ar    1  ZINC001169875900   -0.5000
      7 C7         -7.3740    2.0994   57.5425 C.ar    1  ZINC001169875900    0.0600
      8 C8         -7.8798    1.8399   56.2777 C.ar    1  ZINC001169875900    0.1400
      9 N9         -7.3620    2.5010   55.1577 N.pl3   1  ZINC001169875900   -0.7400
     10 C10        -7.2350    1.7916   53.8823 C.3     1  ZINC001169875900    0.1800
     11 C11        -6.7499    2.7468   52.8223 C.ar    1  ZINC001169875900    0.1000
     12 C12        -5.4271    3.1599   52.8284 C.ar    1  ZINC001169875900   -0.1200
     13 C13        -4.9850    4.0386   51.8516 C.ar    1  ZINC001169875900   -0.0800
     14 C14        -5.8897    4.4753   50.8969 C.ar    1  ZINC001169875900   -0.1000
     15 C15        -7.2050    4.0184   50.9518 C.ar    1  ZINC001169875900    0.0900
     16 C16        -8.1839    4.4755   49.9392 C.2     1  ZINC001169875900    0.5200
     17 O17        -9.3136    4.0302   49.9425 O.2     1  ZINC001169875900   -0.5000
     18 O18        -7.8213    5.3852   49.0147 O.3     1  ZINC001169875900   -0.3300
     19 C19        -8.8333    5.7890   48.0550 C.3     1  ZINC001169875900    0.0600
     20 C20        -8.2503    6.8440   47.1126 C.3     1  ZINC001169875900   -0.1500
     21 N21        -7.5862    3.1726   51.9013 N.ar    1  ZINC001169875900   -0.4200
     22 C22        -8.9108    0.9127   56.1360 C.ar    1  ZINC001169875900   -0.1200
     23 C23        -9.3916    0.2840   57.2706 C.ar    1  ZINC001169875900   -0.1000
     24 C24       -10.5053   -0.7261   57.1689 C.3     1  ZINC001169875900   -0.1000
     25 H25        -8.3549    0.7905   63.4747 H       1  ZINC001169875900    0.0600
     26 H26        -9.0319   -0.7241   64.1194 H       1  ZINC001169875900    0.0600
     27 H27        -7.5257   -0.7550   63.1716 H       1  ZINC001169875900    0.0600
     28 H28       -10.2799    0.0250   62.1119 H       1  ZINC001169875900    0.0700
     29 H29        -9.4506   -1.5206   61.8088 H       1  ZINC001169875900    0.0700
     30 H30        -7.5818   -0.2983   60.7215 H       1  ZINC001169875900    0.0600
     31 H31        -8.4253    1.2420   61.0126 H       1  ZINC001169875900    0.0600
     32 H32        -6.5754    2.8166   57.6615 H       1  ZINC001169875900    0.1500
     33 H33        -7.0873    3.4287   55.2262 H       1  ZINC001169875900    0.4000
     34 H34        -6.5208    0.9752   53.9900 H       1  ZINC001169875900    0.0800
     35 H35        -8.2056    1.3893   53.5920 H       1  ZINC001169875900    0.0800
     36 H36        -4.7473    2.8010   53.5871 H       1  ZINC001169875900    0.1500
     37 H37        -3.9588    4.3750   51.8349 H       1  ZINC001169875900    0.1500
     38 H38        -5.5798    5.1603   50.1215 H       1  ZINC001169875900    0.1500
     39 H39        -9.1522    4.9218   47.4767 H       1  ZINC001169875900    0.0700
     40 H40        -9.6893    6.2077   48.5841 H       1  ZINC001169875900    0.0700
     41 H41        -7.9314    7.7111   47.6908 H       1  ZINC001169875900    0.0700
     42 H42        -7.3943    6.4252   46.5835 H       1  ZINC001169875900    0.0700
     43 H43        -9.0100    7.1471   46.3921 H       1  ZINC001169875900    0.0800
     44 H44        -9.3247    0.6906   55.1635 H       1  ZINC001169875900    0.1400
     45 H45       -10.0823   -1.7198   57.0218 H       1  ZINC001169875900    0.0700
     46 H46       -11.1470   -0.4756   56.3242 H       1  ZINC001169875900    0.0700
     47 H47       -11.0923   -0.7134   58.0874 H       1  ZINC001169875900    0.0700
@<TRIPOS>BOND
     1     1     2    1
     2     1    25    1
     3     1    26    1
     4     1    27    1
     5     2     3    1
     6     2    28    1
     7     2    29    1
     8     3     4    1
     9     3    30    1
    10     3    31    1
    11     4     5    1
    12     5    23   ar
    13     5     6   ar
    14     6     7   ar
    15     7     8   ar
    16     7    32    1
    17     8     9    1
    18     8    22   ar
    19     9    10    1
    20     9    33    1
    21    10    11    1
    22    10    34    1
    23    10    35    1
    24    11    21   ar
    25    11    12   ar
    26    12    13   ar
    27    12    36    1
    28    13    14   ar
    29    13    37    1
    30    14    15   ar
    31    14    38    1
    32    15    16    1
    33    15    21   ar
    34    16    17    2
    35    16    18    1
    36    18    19    1
    37    19    20    1
    38    19    39    1
    39    19    40    1
    40    20    41    1
    41    20    42    1
    42    20    43    1
    43    22    23   ar
    44    22    44    1
    45    23    24    1
    46    24    45    1
    47    24    46    1
    48    24    47    1
@<TRIPOS>SUBSTRUCTURE
     1 ZINC001169875900        1 TEMP              0 ****  ****    0 ROOT


##########                                Name:    ZINC000426567005
##########                DOCK_Rotatable_Bonds:                   9
##########                         Heavy_Atoms:                  31
##########                    Molecular_Weight:             417.467
##########                DOCK_Rotatable_Bonds:                   9
##########                       Formal_Charge:        -2.23517e-07
##########                     HBond_Acceptors:                   8
##########                        HBond_Donors:                   4
##########                         Heavy_Atoms:                  31
##########                          Grid_Score:          -31.139107
##########                     Grid_vdw_energy:          -29.192612
##########                      Grid_es_energy:           -1.946494
##########           Internal_energy_repulsive:           15.641130

@<TRIPOS>MOLECULE
ZINC000426567005
 54 57 1 0 0
SMALL
USER_CHARGES


@<TRIPOS>ATOM
      1 O1          1.5134    4.8367   57.3609 O.2     1  ZINC000426567005   -0.4900
      2 C2          0.5598    4.1114   57.1659 C.2     1  ZINC000426567005    0.5200
      3 N3          0.3212    3.0748   57.9936 N.am    1  ZINC000426567005   -0.6000
      4 C4          1.1760    2.8313   59.0743 C.2     1  ZINC000426567005    0.3000
      5 N5          2.4294    3.2108   59.1671 N.2     1  ZINC000426567005   -0.3100
      6 N6          2.9284    2.7715   60.4000 N.pl3   1  ZINC000426567005   -0.4600
      7 C7          1.9379    2.1179   61.0434 C.2     1  ZINC000426567005    0.1100
      8 C8          2.0348    1.4794   62.4051 C.3     1  ZINC000426567005   -0.0300
      9 C9          0.6348    1.3857   63.0608 C.3     1  ZINC000426567005   -0.1200
     10 C10         0.8097    0.2291   64.0760 C.3     1  ZINC000426567005   -0.1300
     11 C11         1.7150   -0.7831   63.3442 C.3     1  ZINC000426567005   -0.1300
     12 C12         2.4940    0.0118   62.2817 C.3     1  ZINC000426567005   -0.1200
     13 C13         0.8416    2.1434   60.2524 C.2     1  ZINC000426567005   -0.2600
     14 C14        -0.3521    4.3710   56.0131 C.2     1  ZINC000426567005    0.5200
     15 O15        -0.3158    5.4400   55.4394 O.2     1  ZINC000426567005   -0.4900
     16 N16        -1.2160    3.4186   55.6094 N.am    1  ZINC000426567005   -0.6400
     17 C17        -2.0668    3.6609   54.5338 C.ar    1  ZINC000426567005    0.1700
     18 C18        -1.5846    3.5654   53.2317 C.ar    1  ZINC000426567005   -0.1300
     19 C19        -2.4231    3.8042   52.1663 C.ar    1  ZINC000426567005   -0.0300
     20 C20        -3.7601    4.1425   52.3934 C.ar    1  ZINC000426567005   -0.1500
     21 C21        -4.6618    4.3987   51.2536 C.2     1  ZINC000426567005    0.5600
     22 O22        -4.2672    4.2288   50.1161 O.2     1  ZINC000426567005   -0.5100
     23 N23        -5.9227    4.8211   51.4736 N.am    1  ZINC000426567005   -0.6700
     24 C24        -6.7772    5.0639   50.3935 C.ar    1  ZINC000426567005    0.1400
     25 C25        -6.6347    6.2219   49.6400 C.ar    1  ZINC000426567005   -0.1500
     26 C26        -7.4799    6.4585   48.5736 C.ar    1  ZINC000426567005   -0.1000
     27 C27        -8.4672    5.5439   48.2559 C.ar    1  ZINC000426567005   -0.1300
     28 C28        -8.6121    4.3902   49.0043 C.ar    1  ZINC000426567005   -0.1000
     29 C29        -7.7665    4.1448   50.0684 C.ar    1  ZINC000426567005   -0.1200
     30 C30        -4.2414    4.2371   53.7021 C.ar    1  ZINC000426567005   -0.0600
     31 C31        -3.3990    3.9923   54.7631 C.ar    1  ZINC000426567005   -0.1400
     32 H32        -0.4432    2.4976   57.8403 H       1  ZINC000426567005    0.4300
     33 H33         3.8284    2.9124   60.7332 H       1  ZINC000426567005    0.4400
     34 H34         2.7193    2.0411   63.0408 H       1  ZINC000426567005    0.1100
     35 H35         0.3851    2.3149   63.5729 H       1  ZINC000426567005    0.0800
     36 H36        -0.1235    1.1366   62.3184 H       1  ZINC000426567005    0.0700
     37 H37         1.2949    0.5882   64.9836 H       1  ZINC000426567005    0.0700
     38 H38        -0.1547   -0.2216   64.3107 H       1  ZINC000426567005    0.0700
     39 H39         2.4078   -1.2423   64.0493 H       1  ZINC000426567005    0.0700
     40 H40         1.1064   -1.5500   62.8649 H       1  ZINC000426567005    0.0700
     41 H41         2.2634   -0.3692   61.2868 H       1  ZINC000426567005    0.0600
     42 H42         3.5649   -0.0616   62.4712 H       1  ZINC000426567005    0.0700
     43 H43        -0.1187    1.7062   60.4825 H       1  ZINC000426567005    0.1700
     44 H44        -1.2451    2.5643   56.0680 H       1  ZINC000426567005    0.4300
     45 H45        -0.5515    3.3040   53.0569 H       1  ZINC000426567005    0.1500
     46 H46        -2.0482    3.7308   51.1562 H       1  ZINC000426567005    0.1400
     47 H47        -6.2374    4.9566   52.3810 H       1  ZINC000426567005    0.4100
     48 H48        -5.8640    6.9368   49.8878 H       1  ZINC000426567005    0.1300
     49 H49        -7.3698    7.3589   47.9875 H       1  ZINC000426567005    0.1300
     50 H50        -9.1269    5.7312   47.4215 H       1  ZINC000426567005    0.1200
     51 H51        -9.3846    3.6782   48.7540 H       1  ZINC000426567005    0.1300
     52 H52        -7.8798    3.2434   50.6524 H       1  ZINC000426567005    0.1300
     53 H53        -5.2739    4.4986   53.8809 H       1  ZINC000426567005    0.1300
     54 H54        -3.7703    4.0652   55.7747 H       1  ZINC000426567005    0.1400
@<TRIPOS>BOND
     1     1     2    2
     2     2     3   am
     3     2    14    1
     4     3     4    1
     5     3    32    1
     6     4    13    1
     7     4     5    2
     8     5     6    1
     9     6     7    1
    10     6    33    1
    11     7     8    1
    12     7    13    2
    13     8    12    1
    14     8     9    1
    15     8    34    1
    16     9    10    1
    17     9    35    1
    18     9    36    1
    19    10    11    1
    20    10    37    1
    21    10    38    1
    22    11    12    1
    23    11    39    1
    24    11    40    1
    25    12    41    1
    26    12    42    1
    27    13    43    1
    28    14    15    2
    29    14    16   am
    30    16    17    1
    31    16    44    1
    32    17    31   ar
    33    17    18   ar
    34    18    19   ar
    35    18    45    1
    36    19    20   ar
    37    19    46    1
    38    20    21    1
    39    20    30   ar
    40    21    22    2
    41    21    23   am
    42    23    24    1
    43    23    47    1
    44    24    29   ar
    45    24    25   ar
    46    25    26   ar
    47    25    48    1
    48    26    27   ar
    49    26    49    1
    50    27    28   ar
    51    27    50    1
    52    28    29   ar
    53    28    51    1
    54    29    52    1
    55    30    31   ar
    56    30    53    1
    57    31    54    1
@<TRIPOS>SUBSTRUCTURE
     1 ZINC000426567005        1 TEMP              0 ****  ****    0 ROOT


##########                                Name:    ZINC000471198073
##########                DOCK_Rotatable_Bonds:                  12
##########                         Heavy_Atoms:                  30
##########                    Molecular_Weight:             409.528
##########                DOCK_Rotatable_Bonds:                  12
##########                       Formal_Charge:          -0.0399998
##########                     HBond_Acceptors:                   6
##########                        HBond_Donors:                   3
##########                         Heavy_Atoms:                  30
##########                          Grid_Score:          -31.134855
##########                     Grid_vdw_energy:          -30.261631
##########                      Grid_es_energy:           -0.873223
##########           Internal_energy_repulsive:           34.178829

@<TRIPOS>MOLECULE
ZINC000471198073
 61 62 1 0 0
SMALL
USER_CHARGES


@<TRIPOS>ATOM
      1 C1         -0.6877   -2.0283   48.6228 C.3     1  ZINC000471198073   -0.1400
      2 C2          0.6311   -1.6425   49.2958 C.3     1  ZINC000471198073   -0.1100
      3 C3          1.7923   -1.9211   48.3393 C.3     1  ZINC000471198073   -0.1500
      4 C4          0.6075   -0.1764   49.6436 C.2     1  ZINC000471198073    0.5200
      5 O5         -0.2834    0.5320   49.2246 O.2     1  ZINC000471198073   -0.5200
      6 N6          1.5763    0.3476   50.4203 N.am    1  ZINC000471198073   -0.6700
      7 C7          1.5543    1.7089   50.7433 C.ar    1  ZINC000471198073    0.1600
      8 C8          2.0210    2.6474   49.8317 C.ar    1  ZINC000471198073   -0.1500
      9 C9          1.9995    3.9921   50.1494 C.ar    1  ZINC000471198073   -0.0800
     10 C10         1.5140    4.4078   51.3738 C.ar    1  ZINC000471198073   -0.1300
     11 C11         1.0460    3.4739   52.2908 C.ar    1  ZINC000471198073    0.1500
     12 N12         0.5555    3.8949   53.5296 N.am    1  ZINC000471198073   -0.6400
     13 C13        -0.7358    4.2605   53.6541 C.2     1  ZINC000471198073    0.5100
     14 O14        -1.4726    4.2239   52.6903 O.2     1  ZINC000471198073   -0.5000
     15 C15        -1.2602    4.7105   54.9782 C.2     1  ZINC000471198073    0.5100
     16 O16        -2.2306    5.4373   55.0314 O.2     1  ZINC000471198073   -0.5100
     17 N17        -0.6555    4.3095   56.1140 N.am    1  ZINC000471198073   -0.7000
     18 C18        -1.1687    4.7522   57.4128 C.3     1  ZINC000471198073    0.1200
     19 C19        -1.9979    3.6313   58.0426 C.3     1  ZINC000471198073   -0.0900
     20 H20        -2.7409    3.2821   57.3255 H       1  ZINC000471198073    0.0800
     21 C21        -1.0778    2.4716   58.4291 C.3     1  ZINC000471198073   -0.0800
     22 C22         0.0586    2.9914   59.2715 C.ar    1  ZINC000471198073   -0.0800
     23 C23         1.2284    3.4148   58.6688 C.ar    1  ZINC000471198073   -0.1200
     24 C24         2.2708    3.8915   59.4414 C.ar    1  ZINC000471198073   -0.1200
     25 C25         2.1433    3.9452   60.8168 C.ar    1  ZINC000471198073   -0.1200
     26 C26         0.9732    3.5227   61.4195 C.ar    1  ZINC000471198073   -0.1200
     27 C27        -0.0708    3.0501   60.6465 C.ar    1  ZINC000471198073   -0.1200
     28 C28        -2.7045    4.1601   59.2923 C.3     1  ZINC000471198073   -0.1000
     29 C29        -1.9959    5.4245   59.7822 C.3     1  ZINC000471198073   -0.1600
     30 C30        -4.1600    4.4896   58.9545 C.3     1  ZINC000471198073   -0.1700
     31 C31         1.0611    2.1232   51.9722 C.ar    1  ZINC000471198073   -0.1400
     32 H32        -0.6706   -3.0887   48.3712 H       1  ZINC000471198073    0.0700
     33 H33        -1.5150   -1.8299   49.3042 H       1  ZINC000471198073    0.0600
     34 H34        -0.8170   -1.4412   47.7136 H       1  ZINC000471198073    0.0600
     35 H35         0.7604   -2.2296   50.2050 H       1  ZINC000471198073    0.1000
     36 H36         1.6630   -1.3340   47.4301 H       1  ZINC000471198073    0.0600
     37 H37         2.7319   -1.6462   48.8187 H       1  ZINC000471198073    0.0600
     38 H38         1.8094   -2.9816   48.0877 H       1  ZINC000471198073    0.0700
     39 H39         2.2888   -0.2189   50.7553 H       1  ZINC000471198073    0.4100
     40 H40         2.4015    2.3257   48.8734 H       1  ZINC000471198073    0.1300
     41 H41         2.3632    4.7196   49.4389 H       1  ZINC000471198073    0.1300
     42 H42         1.4985    5.4595   51.6192 H       1  ZINC000471198073    0.1400
     43 H43         1.1443    3.9241   54.2999 H       1  ZINC000471198073    0.4200
     44 H44         0.1195    3.7276   56.0715 H       1  ZINC000471198073    0.4200
     45 H45        -0.3336    4.9988   58.0685 H       1  ZINC000471198073    0.0700
     46 H46        -1.7948    5.6337   57.2747 H       1  ZINC000471198073    0.0800
     47 H47        -1.6432    1.7331   58.9975 H       1  ZINC000471198073    0.0800
     48 H48        -0.6788    2.0081   57.5269 H       1  ZINC000471198073    0.0800
     49 H49         1.3280    3.3727   57.5942 H       1  ZINC000471198073    0.1200
     50 H50         3.1849    4.2215   58.9705 H       1  ZINC000471198073    0.1200
     51 H51         2.9579    4.3170   61.4205 H       1  ZINC000471198073    0.1200
     52 H52         0.8736    3.5644   62.4941 H       1  ZINC000471198073    0.1200
     53 H53        -0.9851    2.7199   61.1174 H       1  ZINC000471198073    0.1200
     54 H54        -2.6759    3.4013   60.0744 H       1  ZINC000471198073    0.0800
     55 H55        -2.1094    6.2152   59.0406 H       1  ZINC000471198073    0.0600
     56 H56        -2.4368    5.7455   60.7260 H       1  ZINC000471198073    0.0600
     57 H57        -0.9367    5.2136   59.9293 H       1  ZINC000471198073    0.0600
     58 H58        -4.6294    3.6239   58.4872 H       1  ZINC000471198073    0.0600
     59 H59        -4.6963    4.7446   59.8685 H       1  ZINC000471198073    0.0600
     60 H60        -4.1909    5.3350   58.2671 H       1  ZINC000471198073    0.0700
     61 H61         0.6981    1.3955   52.6829 H       1  ZINC000471198073    0.1400
@<TRIPOS>BOND
     1     1     2    1
     2     1    32    1
     3     1    33    1
     4     1    34    1
     5     2     3    1
     6     2     4    1
     7     2    35    1
     8     3    36    1
     9     3    37    1
    10     3    38    1
    11     4     5    2
    12     4     6   am
    13     6     7    1
    14     6    39    1
    15     7    31   ar
    16     7     8   ar
    17     8     9   ar
    18     8    40    1
    19     9    10   ar
    20     9    41    1
    21    10    11   ar
    22    10    42    1
    23    11    12    1
    24    11    31   ar
    25    12    13   am
    26    12    43    1
    27    13    14    2
    28    13    15    1
    29    15    16    2
    30    15    17   am
    31    17    18    1
    32    17    44    1
    33    18    19    1
    34    18    45    1
    35    18    46    1
    36    19    20    1
    37    19    21    1
    38    19    28    1
    39    21    22    1
    40    21    47    1
    41    21    48    1
    42    22    27   ar
    43    22    23   ar
    44    23    24   ar
    45    23    49    1
    46    24    25   ar
    47    24    50    1
    48    25    26   ar
    49    25    51    1
    50    26    27   ar
    51    26    52    1
    52    27    53    1
    53    28    29    1
    54    28    30    1
    55    28    54    1
    56    29    55    1
    57    29    56    1
    58    29    57    1
    59    30    58    1
    60    30    59    1
    61    30    60    1
    62    31    61    1
@<TRIPOS>SUBSTRUCTURE
     1 ZINC000471198073        1 TEMP              0 ****  ****    0 ROOT


##########                                Name:    ZINC001000186632
##########                DOCK_Rotatable_Bonds:                   7
##########                         Heavy_Atoms:                  23
##########                    Molecular_Weight:             342.379
##########                DOCK_Rotatable_Bonds:                   7
##########                       Formal_Charge:          -0.0100001
##########                     HBond_Acceptors:                  11
##########                        HBond_Donors:                   2
##########                         Heavy_Atoms:                  23
##########                          Grid_Score:          -31.127110
##########                     Grid_vdw_energy:          -31.350519
##########                      Grid_es_energy:            0.223410
##########           Internal_energy_repulsive:            6.712427

@<TRIPOS>MOLECULE
ZINC001000186632
 41 43 1 0 0
SMALL
USER_CHARGES


@<TRIPOS>ATOM
      1 O1        -10.9972   -0.5613   61.7896 O.2     1  ZINC001000186632   -0.5200
      2 C2        -10.0238   -0.6074   61.0676 C.2     1  ZINC001000186632    0.5300
      3 C3         -8.7564    0.1044   61.4652 C.3     1  ZINC001000186632   -0.0500
      4 C4         -8.7001    0.2294   62.9660 C.2     1  ZINC001000186632    0.2400
      5 N5         -7.7384   -0.2180   63.7299 N.2     1  ZINC001000186632   -0.3000
      6 N6         -8.0843    0.1091   65.0513 N.pl3   1  ZINC001000186632   -0.4800
      7 C7         -9.2645    0.7493   64.9861 C.2     1  ZINC001000186632    0.2700
      8 N8         -9.6197    0.8190   63.7289 N.2     1  ZINC001000186632   -0.5400
      9 N9        -10.0737   -1.2997   59.9123 N.am    1  ZINC001000186632   -0.7100
     10 C10       -11.3057   -1.9916   59.5258 C.3     1  ZINC001000186632    0.1100
     11 C11       -12.3253   -1.0880   58.8088 C.3     1  ZINC001000186632    0.1000
     12 N12       -11.6681   -1.5102   57.5567 N.am    1  ZINC001000186632   -0.6500
     13 C13       -11.5475   -0.9743   56.3260 C.2     1  ZINC001000186632    0.5100
     14 O14       -12.0579    0.0979   56.0788 O.2     1  ZINC001000186632   -0.5100
     15 C15       -10.7785   -1.7070   55.2570 C.3     1  ZINC001000186632    0.1500
     16 N16       -10.0748   -0.7395   54.4115 N.am    1  ZINC001000186632   -0.9800
     17 C17        -9.1315    0.2921   54.8684 C.3     1  ZINC001000186632    0.0800
     18 C18        -8.1019    0.5953   53.7631 C.3     1  ZINC001000186632   -0.1300
     19 C19        -8.9540    0.7147   52.4665 C.3     1  ZINC001000186632   -0.6000
     20 S20       -10.1907   -0.6097   52.7505 S.o2    1  ZINC001000186632    2.5700
     21 O21        -9.7360   -1.8565   52.2425 O.2     1  ZINC001000186632   -0.9400
     22 O22       -11.5109   -0.1411   52.5126 O.2     1  ZINC001000186632   -0.9600
     23 C23       -11.1960   -2.7550   58.1934 C.3     1  ZINC001000186632    0.0900
     24 H24        -7.8949   -0.4647   61.1156 H       1  ZINC001000186632    0.1300
     25 H25        -8.7416    1.0979   61.0171 H       1  ZINC001000186632    0.1200
     26 H26        -7.5731   -0.0880   65.8518 H       1  ZINC001000186632    0.4400
     27 H27        -9.8208    1.1409   65.8251 H       1  ZINC001000186632    0.2200
     28 H28        -9.2938   -1.3398   59.3368 H       1  ZINC001000186632    0.4100
     29 H29       -11.7337   -2.5821   60.3359 H       1  ZINC001000186632    0.1200
     30 H30       -13.3562   -1.4297   58.9008 H       1  ZINC001000186632    0.1000
     31 H31       -12.2058   -0.0278   59.0318 H       1  ZINC001000186632    0.0900
     32 H32       -10.0550   -2.3755   55.7236 H       1  ZINC001000186632    0.1100
     33 H33       -11.4693   -2.2884   54.6464 H       1  ZINC001000186632    0.1100
     34 H34        -9.6805    1.2022   55.1101 H       1  ZINC001000186632    0.0800
     35 H35        -8.6120   -0.0622   55.7587 H       1  ZINC001000186632    0.0900
     36 H36        -7.5872    1.5338   53.9688 H       1  ZINC001000186632    0.1100
     37 H37        -7.3859   -0.2217   53.6747 H       1  ZINC001000186632    0.1000
     38 H38        -9.4292    1.6932   52.3966 H       1  ZINC001000186632    0.1400
     39 H39        -8.3540    0.5064   51.5807 H       1  ZINC001000186632    0.1400
     40 H40       -10.1748   -3.0258   57.9251 H       1  ZINC001000186632    0.0900
     41 H41       -11.8952   -3.5866   58.1046 H       1  ZINC001000186632    0.1100
@<TRIPOS>BOND
     1     1     2    2
     2     2     3    1
     3     2     9   am
     4     3     4    1
     5     3    24    1
     6     3    25    1
     7     4     8    1
     8     4     5    2
     9     5     6    1
    10     6     7    1
    11     6    26    1
    12     7     8    2
    13     7    27    1
    14     9    10    1
    15     9    28    1
    16    10    23    1
    17    10    11    1
    18    10    29    1
    19    11    12    1
    20    11    30    1
    21    11    31    1
    22    12    13   am
    23    12    23    1
    24    13    14    2
    25    13    15    1
    26    15    16    1
    27    15    32    1
    28    15    33    1
    29    16    20   am
    30    16    17    1
    31    17    18    1
    32    17    34    1
    33    17    35    1
    34    18    19    1
    35    18    36    1
    36    18    37    1
    37    19    20    1
    38    19    38    1
    39    19    39    1
    40    20    21    2
    41    20    22    2
    42    23    40    1
    43    23    41    1
@<TRIPOS>SUBSTRUCTURE
     1 ZINC001000186632        1 TEMP              0 ****  ****    0 ROOT


##########                                Name:    ZINC000938043669
##########                DOCK_Rotatable_Bonds:                   7
##########                         Heavy_Atoms:                  27
##########                    Molecular_Weight:             372.439
##########                DOCK_Rotatable_Bonds:                   7
##########                       Formal_Charge:           0.0499999
##########                     HBond_Acceptors:                   6
##########                        HBond_Donors:                   1
##########                         Heavy_Atoms:                  27
##########                          Grid_Score:          -31.106333
##########                     Grid_vdw_energy:          -30.122953
##########                      Grid_es_energy:           -0.983379
##########           Internal_energy_repulsive:           12.497636

@<TRIPOS>MOLECULE
ZINC000938043669
 52 55 1 0 0
SMALL
USER_CHARGES


@<TRIPOS>ATOM
      1 O1         -2.8315    4.8467   51.5214 O.2     1  ZINC000938043669   -0.5000
      2 C2         -3.5763    4.2343   52.2571 C.2     1  ZINC000938043669    0.5300
      3 C3         -3.0543    3.6583   53.5481 C.3     1  ZINC000938043669    0.0500
      4 O4         -3.2267    4.6112   54.5990 O.3     1  ZINC000938043669   -0.2800
      5 C5         -3.0563    4.1641   55.8716 C.ar    1  ZINC000938043669    0.0900
      6 C6         -4.1425    4.0772   56.7284 C.ar    1  ZINC000938043669   -0.1800
      7 C7         -3.9672    3.6220   58.0216 C.ar    1  ZINC000938043669   -0.0900
      8 C8         -2.7101    3.2531   58.4621 C.ar    1  ZINC000938043669   -0.1300
      9 C9         -1.6235    3.3386   57.6108 C.ar    1  ZINC000938043669   -0.1100
     10 C10        -1.7939    3.7880   56.3141 C.ar    1  ZINC000938043669    0.0800
     11 F11        -0.7328    3.8716   55.4822 F       1  ZINC000938043669   -0.1300
     12 N12        -4.8720    4.0737   51.9227 N.am    1  ZINC000938043669   -0.6200
     13 C13        -5.5108    4.5820   50.7000 C.3     1  ZINC000938043669    0.1000
     14 C14        -6.9874    4.1351   50.7348 C.3     1  ZINC000938043669   -0.1400
     15 C15        -6.9601    2.9196   51.6988 C.3     1  ZINC000938043669    0.1300
     16 H16        -6.6555    2.0130   51.1758 H       1  ZINC000938043669    0.1100
     17 N17        -8.2599    2.7357   52.3490 N.am    1  ZINC000938043669   -0.7200
     18 C18        -8.7057    1.4941   52.6250 C.2     1  ZINC000938043669    0.5200
     19 O19        -8.0301    0.5291   52.3364 O.2     1  ZINC000938043669   -0.5200
     20 C20       -10.0436    1.3049   53.2923 C.3     1  ZINC000938043669   -0.1000
     21 H21       -10.5756    2.2559   53.3153 H       1  ZINC000938043669    0.1000
     22 C22        -9.8333    0.8036   54.7229 C.3     1  ZINC000938043669   -0.1100
     23 C23       -10.5156   -0.5597   54.8946 C.3     1  ZINC000938043669   -0.0600
     24 H24       -10.3346   -0.9595   55.8923 H       1  ZINC000938043669    0.0800
     25 C25        -9.9627   -1.4952   53.8297 C.2     1  ZINC000938043669   -0.1800
     26 C26       -10.1456   -1.0593   52.5855 C.2     1  ZINC000938043669   -0.1300
     27 C27       -10.8668    0.2776   52.5046 C.3     1  ZINC000938043669   -0.0400
     28 H28       -10.9956    0.5852   51.4668 H       1  ZINC000938043669    0.0900
     29 C29       -12.2270    0.1163   53.1972 C.3     1  ZINC000938043669   -0.1200
     30 C30       -12.0196   -0.3811   54.6446 C.3     1  ZINC000938043669   -0.1100
     31 C31        -5.8821    3.3539   52.7196 C.3     1  ZINC000938043669    0.1000
     32 H32        -3.6045    2.7485   53.7888 H       1  ZINC000938043669    0.1000
     33 H33        -1.9952    3.4244   53.4398 H       1  ZINC000938043669    0.1000
     34 H34        -5.1253    4.3654   56.3856 H       1  ZINC000938043669    0.1400
     35 H35        -4.8137    3.5547   58.6890 H       1  ZINC000938043669    0.1300
     36 H36        -2.5760    2.8977   59.4732 H       1  ZINC000938043669    0.1400
     37 H37        -0.6422    3.0502   57.9576 H       1  ZINC000938043669    0.1500
     38 H38        -5.4533    5.6703   50.6766 H       1  ZINC000938043669    0.0800
     39 H39        -5.0174    4.1637   49.8227 H       1  ZINC000938043669    0.0800
     40 H40        -7.6212    4.9280   51.1320 H       1  ZINC000938043669    0.0900
     41 H41        -7.3224    3.8329   49.7425 H       1  ZINC000938043669    0.1000
     42 H42        -8.7997    3.5076   52.5811 H       1  ZINC000938043669    0.4000
     43 H43        -8.7660    0.7026   54.9190 H       1  ZINC000938043669    0.0700
     44 H44       -10.2654    1.5169   55.4247 H       1  ZINC000938043669    0.0800
     45 H45        -9.4678   -2.4267   54.0618 H       1  ZINC000938043669    0.1200
     46 H46        -9.8123   -1.6038   51.7144 H       1  ZINC000938043669    0.1200
     47 H47       -12.7387    1.0784   53.2213 H       1  ZINC000938043669    0.0700
     48 H48       -12.8323   -0.6031   52.6456 H       1  ZINC000938043669    0.0700
     49 H49       -12.5239   -1.3385   54.7753 H       1  ZINC000938043669    0.0700
     50 H50       -12.4355    0.3462   55.3417 H       1  ZINC000938043669    0.0700
     51 H51        -5.4400    2.4805   53.1991 H       1  ZINC000938043669    0.0900
     52 H52        -6.3136    4.0201   53.4667 H       1  ZINC000938043669    0.0700
@<TRIPOS>BOND
     1     1     2    2
     2     2     3    1
     3     2    12   am
     4     3     4    1
     5     3    32    1
     6     3    33    1
     7     4     5    1
     8     5    10   ar
     9     5     6   ar
    10     6     7   ar
    11     6    34    1
    12     7     8   ar
    13     7    35    1
    14     8     9   ar
    15     8    36    1
    16     9    10   ar
    17     9    37    1
    18    10    11    1
    19    12    31    1
    20    12    13    1
    21    13    14    1
    22    13    38    1
    23    13    39    1
    24    14    15    1
    25    14    40    1
    26    14    41    1
    27    15    16    1
    28    15    17    1
    29    15    31    1
    30    17    18   am
    31    17    42    1
    32    18    19    2
    33    18    20    1
    34    20    21    1
    35    20    27    1
    36    20    22    1
    37    22    23    1
    38    22    43    1
    39    22    44    1
    40    23    24    1
    41    23    30    1
    42    23    25    1
    43    25    26    2
    44    25    45    1
    45    26    27    1
    46    26    46    1
    47    27    28    1
    48    27    29    1
    49    29    30    1
    50    29    47    1
    51    29    48    1
    52    30    49    1
    53    30    50    1
    54    31    51    1
    55    31    52    1
@<TRIPOS>SUBSTRUCTURE
     1 ZINC000938043669        1 TEMP              0 ****  ****    0 ROOT


##########                                Name:    ZINC000479580180
##########                DOCK_Rotatable_Bonds:                   5
##########                         Heavy_Atoms:                  30
##########                    Molecular_Weight:             404.444
##########                DOCK_Rotatable_Bonds:                   5
##########                       Formal_Charge:           0.0299995
##########                     HBond_Acceptors:                   7
##########                        HBond_Donors:                   1
##########                         Heavy_Atoms:                  30
##########                          Grid_Score:          -31.100250
##########                     Grid_vdw_energy:          -29.699444
##########                      Grid_es_energy:           -1.400806
##########           Internal_energy_repulsive:           20.143404

@<TRIPOS>MOLECULE
ZINC000479580180
 51 55 1 0 0
SMALL
USER_CHARGES


@<TRIPOS>ATOM
      1 O1         -9.7163   -2.2851   59.3144 O.2     1  ZINC000479580180   -0.5200
      2 C2         -9.5387   -1.0962   59.4757 C.2     1  ZINC000479580180    0.5200
      3 C3         -8.6176   -0.6132   60.5663 C.3     1  ZINC000479580180   -0.0700
      4 C4         -9.4345   -0.1432   61.7423 C.2     1  ZINC000479580180   -0.1600
      5 C5        -10.7212    0.2297   61.7302 C.2     1  ZINC000479580180    0.0300
      6 O6        -11.1118    0.5873   62.9665 O.3     1  ZINC000479580180   -0.1900
      7 C7        -10.0971    0.4644   63.8454 C.ar    1  ZINC000479580180    0.0800
      8 C8         -9.9806    0.6992   65.2094 C.ar    1  ZINC000479580180   -0.1400
      9 C9         -8.7754    0.4726   65.8443 C.ar    1  ZINC000479580180    0.1300
     10 F10        -8.6648    0.7013   67.1712 F       1  ZINC000479580180   -0.1300
     11 C11        -7.6758    0.0116   65.1318 C.ar    1  ZINC000479580180   -0.1600
     12 C12        -7.7716   -0.2248   63.7882 C.ar    1  ZINC000479580180   -0.0400
     13 C13        -8.9821   -0.0081   63.1325 C.ar    1  ZINC000479580180   -0.1200
     14 N14       -10.1606   -0.2072   58.6761 N.am    1  ZINC000479580180   -0.6200
     15 C15        -9.9460    1.2357   58.8517 C.3     1  ZINC000479580180    0.1100
     16 C16        -9.5126    1.8363   57.5108 C.3     1  ZINC000479580180   -0.1300
     17 C17       -10.5455    1.4802   56.4390 C.3     1  ZINC000479580180   -0.0100
     18 C18       -10.1398    2.0983   55.1258 C.2     1  ZINC000479580180    0.3000
     19 N19        -8.9143    2.3209   54.7308 N.2     1  ZINC000479580180   -0.5300
     20 C20        -8.9248    2.8809   53.5138 C.2     1  ZINC000479580180    0.2700
     21 C21        -7.7263    3.2791   52.7343 C.ar    1  ZINC000479580180   -0.0200
     22 C22        -6.4511    3.0031   53.2231 C.ar    1  ZINC000479580180   -0.0800
     23 C23        -5.3399    3.3753   52.4939 C.ar    1  ZINC000479580180   -0.1300
     24 C24        -5.4905    4.0213   51.2802 C.ar    1  ZINC000479580180   -0.1000
     25 C25        -6.7542    4.2977   50.7903 C.ar    1  ZINC000479580180   -0.1200
     26 C26        -7.8724    3.9249   51.5084 C.ar    1  ZINC000479580180   -0.0800
     27 N27       -10.1731    3.0189   53.1241 N.2     1  ZINC000479580180   -0.3000
     28 N28       -10.9772    2.5102   54.1570 N.pl3   1  ZINC000479580180   -0.4800
     29 C29       -10.6201   -0.0406   56.2855 C.3     1  ZINC000479580180   -0.1400
     30 C30       -11.0614   -0.6627   57.6086 C.3     1  ZINC000479580180    0.1200
     31 H31        -7.9660   -1.4291   60.8795 H       1  ZINC000479580180    0.1100
     32 H32        -8.0120    0.2119   60.1916 H       1  ZINC000479580180    0.1100
     33 H33       -11.3533    0.2416   60.8546 H       1  ZINC000479580180    0.2100
     34 H34       -10.8301    1.0581   65.7717 H       1  ZINC000479580180    0.1500
     35 H35        -6.7396   -0.1611   65.6418 H       1  ZINC000479580180    0.1400
     36 H36        -6.9137   -0.5827   63.2383 H       1  ZINC000479580180    0.1300
     37 H37       -10.8730    1.7056   59.1800 H       1  ZINC000479580180    0.0800
     38 H38        -9.1666    1.4014   59.5953 H       1  ZINC000479580180    0.0900
     39 H39        -9.4430    2.9202   57.6031 H       1  ZINC000479580180    0.0900
     40 H40        -8.5407    1.4318   57.2280 H       1  ZINC000479580180    0.0700
     41 H41       -11.5221    1.8636   56.7345 H       1  ZINC000479580180    0.1200
     42 H42        -6.3323    2.4994   54.1710 H       1  ZINC000479580180    0.1400
     43 H43        -4.3509    3.1619   52.8718 H       1  ZINC000479580180    0.1300
     44 H44        -4.6183    4.3114   50.7131 H       1  ZINC000479580180    0.1300
     45 H45        -6.8662    4.8028   49.8423 H       1  ZINC000479580180    0.1300
     46 H46        -8.8586    4.1410   51.1249 H       1  ZINC000479580180    0.1300
     47 H47       -11.9462    2.4694   54.1715 H       1  ZINC000479580180    0.4400
     48 H48       -11.3389   -0.2926   55.5058 H       1  ZINC000479580180    0.0900
     49 H49        -9.6379   -0.4275   56.0142 H       1  ZINC000479580180    0.0700
     50 H50       -11.0204   -1.7494   57.5330 H       1  ZINC000479580180    0.1000
     51 H51       -12.0795   -0.3485   57.8386 H       1  ZINC000479580180    0.0800
@<TRIPOS>BOND
     1     1     2    2
     2     2     3    1
     3     2    14   am
     4     3     4    1
     5     3    31    1
     6     3    32    1
     7     4    13    1
     8     4     5    2
     9     5     6    1
    10     5    33    1
    11     6     7    1
    12     7    13   ar
    13     7     8   ar
    14     8     9   ar
    15     8    34    1
    16     9    10    1
    17     9    11   ar
    18    11    12   ar
    19    11    35    1
    20    12    13   ar
    21    12    36    1
    22    14    30    1
    23    14    15    1
    24    15    16    1
    25    15    37    1
    26    15    38    1
    27    16    17    1
    28    16    39    1
    29    16    40    1
    30    17    18    1
    31    17    29    1
    32    17    41    1
    33    18    28    1
    34    18    19    2
    35    19    20    1
    36    20    21    1
    37    20    27    2
    38    21    26   ar
    39    21    22   ar
    40    22    23   ar
    41    22    42    1
    42    23    24   ar
    43    23    43    1
    44    24    25   ar
    45    24    44    1
    46    25    26   ar
    47    25    45    1
    48    26    46    1
    49    27    28    1
    50    28    47    1
    51    29    30    1
    52    29    48    1
    53    29    49    1
    54    30    50    1
    55    30    51    1
@<TRIPOS>SUBSTRUCTURE
     1 ZINC000479580180        1 TEMP              0 ****  ****    0 ROOT


##########                                Name:    ZINC001570985666
##########                DOCK_Rotatable_Bonds:                   7
##########                         Heavy_Atoms:                  26
##########                    Molecular_Weight:             357.415
##########                DOCK_Rotatable_Bonds:                   7
##########                       Formal_Charge:          -0.0100001
##########                     HBond_Acceptors:                   9
##########                        HBond_Donors:                   3
##########                         Heavy_Atoms:                  26
##########                          Grid_Score:          -31.096634
##########                     Grid_vdw_energy:          -29.014359
##########                      Grid_es_energy:           -2.082276
##########           Internal_energy_repulsive:           10.543750

@<TRIPOS>MOLECULE
ZINC001570985666
 49 52 1 0 0
SMALL
USER_CHARGES


@<TRIPOS>ATOM
      1 C1         -9.3848   -1.1303   52.9207 C.3     1  ZINC001570985666   -0.1600
      2 C2         -9.6963    0.2296   53.5490 C.3     1  ZINC001570985666    0.1300
      3 H3        -10.3660    0.7932   52.8995 H       1  ZINC001570985666    0.0800
      4 C4         -8.3882    1.0193   53.7663 C.3     1  ZINC001570985666    0.1400
      5 H5         -7.5351    0.3434   53.8261 H       1  ZINC001570985666    0.1100
      6 N6         -8.1935    2.0034   52.6987 N.am    1  ZINC001570985666   -0.7200
      7 C7         -6.9664    2.5087   52.4636 C.2     1  ZINC001570985666    0.6000
      8 O8         -6.0209    2.1487   53.1386 O.2     1  ZINC001570985666   -0.5300
      9 C9         -6.7703    3.4969   51.3889 C.2     1  ZINC001570985666   -0.2300
     10 C10        -5.5784    4.0827   51.0206 C.2     1  ZINC001570985666    0.0700
     11 N11        -5.8211    4.9271   49.9984 N.pl3   1  ZINC001570985666   -0.5200
     12 C12        -7.1600    4.8986   49.6953 C.2     1  ZINC001570985666    0.0600
     13 C13        -7.8231    5.6864   48.6322 C.2     1  ZINC001570985666    0.2500
     14 N14        -9.0974    5.6369   48.2926 N.2     1  ZINC001570985666   -0.3100
     15 N15        -9.2804    6.4709   47.3272 N.pl3   1  ZINC001570985666   -0.2200
     16 N16        -8.1648    7.0471   47.0441 N.2     1  ZINC001570985666   -0.0400
     17 N17        -7.2474    6.5944   47.8295 N.2     1  ZINC001570985666   -0.2600
     18 C18        -7.7717    4.0222   50.5315 C.2     1  ZINC001570985666   -0.0600
     19 C19        -8.6287    1.7217   55.1287 C.3     1  ZINC001570985666   -0.1500
     20 C20        -9.4466    0.6498   55.8913 C.3     1  ZINC001570985666    0.1000
     21 N21       -10.3197    0.0404   54.8669 N.am    1  ZINC001570985666   -0.6200
     22 C22       -11.4900   -0.5849   55.1036 C.2     1  ZINC001570985666    0.5300
     23 O23       -12.1257   -1.0508   54.1818 O.2     1  ZINC001570985666   -0.5300
     24 C24       -12.0083   -0.7055   56.5134 C.3     1  ZINC001570985666   -0.1300
     25 C25       -11.3713   -1.9217   57.1887 C.3     1  ZINC001570985666   -0.1000
     26 C26       -10.4959   -1.5648   58.4016 C.3     1  ZINC001570985666   -0.1300
     27 C27       -11.0850   -2.8059   59.0927 C.3     1  ZINC001570985666   -0.1400
     28 C28       -12.3077   -2.6396   58.1750 C.3     1  ZINC001570985666   -0.1400
     29 H29       -10.3122   -1.6844   52.7755 H       1  ZINC001570985666    0.0700
     30 H30        -8.8954   -0.9822   51.9582 H       1  ZINC001570985666    0.0700
     31 H31        -8.7250   -1.6930   53.5810 H       1  ZINC001570985666    0.0600
     32 H32        -8.9478    2.2914   52.1610 H       1  ZINC001570985666    0.4000
     33 H33        -4.6156    3.8975   51.4735 H       1  ZINC001570985666    0.1800
     34 H34        -5.1549    5.4696   49.5482 H       1  ZINC001570985666    0.4300
     35 H35       -10.1265    6.6381   46.8833 H       1  ZINC001570985666    0.4800
     36 H36        -8.8232    3.7761   50.5461 H       1  ZINC001570985666    0.1600
     37 H37        -7.6851    1.9264   55.6346 H       1  ZINC001570985666    0.0900
     38 H38        -9.2075    2.6364   54.9999 H       1  ZINC001570985666    0.0800
     39 H39        -8.7822   -0.1003   56.3200 H       1  ZINC001570985666    0.0800
     40 H40       -10.0480    1.1158   56.6718 H       1  ZINC001570985666    0.0800
     41 H41       -11.7539    0.1950   57.0723 H       1  ZINC001570985666    0.0900
     42 H42       -13.0913   -0.8270   56.4932 H       1  ZINC001570985666    0.0900
     43 H43       -10.8857   -2.5931   56.4804 H       1  ZINC001570985666    0.1000
     44 H44        -9.4263   -1.6406   58.2056 H       1  ZINC001570985666    0.0700
     45 H45       -10.7742   -0.6255   58.8796 H       1  ZINC001570985666    0.0800
     46 H46       -10.5199   -3.7191   58.9059 H       1  ZINC001570985666    0.0800
     47 H47       -11.3077   -2.6532   60.1487 H       1  ZINC001570985666    0.0700
     48 H48       -13.0813   -1.9941   58.5911 H       1  ZINC001570985666    0.0800
     49 H49       -12.7008   -3.5829   57.7961 H       1  ZINC001570985666    0.0700
@<TRIPOS>BOND
     1     1     2    1
     2     1    29    1
     3     1    30    1
     4     1    31    1
     5     2     3    1
     6     2    21    1
     7     2     4    1
     8     4     5    1
     9     4     6    1
    10     4    19    1
    11     6     7   am
    12     6    32    1
    13     7     8    2
    14     7     9    1
    15     9    18    1
    16     9    10    2
    17    10    11    1
    18    10    33    1
    19    11    12    1
    20    11    34    1
    21    12    13    1
    22    12    18    2
    23    13    17    1
    24    13    14    2
    25    14    15    1
    26    15    16    1
    27    15    35    1
    28    16    17    2
    29    18    36    1
    30    19    20    1
    31    19    37    1
    32    19    38    1
    33    20    21    1
    34    20    39    1
    35    20    40    1
    36    21    22   am
    37    22    23    2
    38    22    24    1
    39    24    25    1
    40    24    41    1
    41    24    42    1
    42    25    28    1
    43    25    26    1
    44    25    43    1
    45    26    27    1
    46    26    44    1
    47    26    45    1
    48    27    28    1
    49    27    46    1
    50    27    47    1
    51    28    48    1
    52    28    49    1
@<TRIPOS>SUBSTRUCTURE
     1 ZINC001570985666        1 TEMP              0 ****  ****    0 ROOT


##########                                Name:    ZINC000840464592
##########                DOCK_Rotatable_Bonds:                  10
##########                         Heavy_Atoms:                  26
##########                    Molecular_Weight:             360.497
##########                DOCK_Rotatable_Bonds:                  10
##########                       Formal_Charge:          -0.0399996
##########                     HBond_Acceptors:                   5
##########                        HBond_Donors:                   1
##########                         Heavy_Atoms:                  26
##########                          Grid_Score:          -31.096001
##########                     Grid_vdw_energy:          -31.253506
##########                      Grid_es_energy:            0.157504
##########           Internal_energy_repulsive:           77.484482

@<TRIPOS>MOLECULE
ZINC000840464592
 58 59 1 0 0
SMALL
USER_CHARGES


@<TRIPOS>ATOM
      1 C1         -8.8132    0.1320   64.7056 C.3     1  ZINC000840464592   -0.1500
      2 C2         -9.0067    1.0564   63.5019 C.3     1  ZINC000840464592   -0.1300
      3 C3         -8.9178    0.2391   62.2117 C.3     1  ZINC000840464592   -0.1200
      4 C4         -9.0288    1.1750   61.0064 C.3     1  ZINC000840464592   -0.1200
      5 C5         -8.8395    0.3720   59.7179 C.3     1  ZINC000840464592   -0.1200
      6 C6         -8.9092    1.3144   58.5147 C.3     1  ZINC000840464592    0.0600
      7 O7         -8.4526    0.6299   57.3464 O.3     1  ZINC000840464592   -0.3600
      8 C8         -8.6196    1.3710   56.1360 C.3     1  ZINC000840464592    0.0800
      9 H9         -9.5948    1.8579   56.1396 H       1  ZINC000840464592    0.0800
     10 C10        -7.5209    2.4306   56.0310 C.3     1  ZINC000840464592   -0.1800
     11 C11        -8.5296    0.4356   54.9578 C.2     1  ZINC000840464592    0.5200
     12 O12        -7.4719    0.2824   54.3846 O.2     1  ZINC000840464592   -0.5000
     13 N13        -9.6246   -0.2305   54.5411 N.am    1  ZINC000840464592   -0.6000
     14 C14        -9.5325   -1.1361   53.3986 C.3     1  ZINC000840464592    0.0900
     15 C15       -10.4086   -0.6678   52.2421 C.3     1  ZINC000840464592   -0.1600
     16 C16       -11.8805   -0.6685   52.6612 C.3     1  ZINC000840464592    0.0800
     17 N17       -12.2095    0.6306   53.2579 N.am    1  ZINC000840464592   -0.7200
     18 C18       -11.7305    0.9628   54.4672 C.2     1  ZINC000840464592    0.5100
     19 O19       -11.9599    2.0569   54.9379 O.2     1  ZINC000840464592   -0.5200
     20 C20       -10.9003   -0.0468   55.2410 C.3     1  ZINC000840464592    0.1400
     21 H21       -10.7159    0.3266   56.2482 H       1  ZINC000840464592    0.1300
     22 C22       -11.6508   -1.3780   55.3167 C.3     1  ZINC000840464592   -0.1000
     23 C23       -11.6718   -1.8624   56.7435 C.ar    1  ZINC000840464592   -0.0900
     24 C24       -12.3764   -1.1585   57.7021 C.ar    1  ZINC000840464592   -0.1100
     25 C25       -12.3957   -1.6028   59.0109 C.ar    1  ZINC000840464592   -0.1200
     26 C26       -11.7107   -2.7513   59.3611 C.ar    1  ZINC000840464592   -0.1200
     27 C27       -11.0069   -3.4557   58.4023 C.ar    1  ZINC000840464592   -0.1200
     28 C28       -10.9911   -3.0137   57.0927 C.ar    1  ZINC000840464592   -0.1100
     29 H29        -7.8349   -0.3446   64.6441 H       1  ZINC000840464592    0.0500
     30 H30        -8.8765    0.7144   65.6248 H       1  ZINC000840464592    0.0500
     31 H31        -9.5904   -0.6322   64.7054 H       1  ZINC000840464592    0.0500
     32 H32        -9.9850    1.5331   63.5635 H       1  ZINC000840464592    0.0600
     33 H33        -8.2295    1.8207   63.5021 H       1  ZINC000840464592    0.0600
     34 H34        -7.9624   -0.2845   62.1782 H       1  ZINC000840464592    0.0600
     35 H35        -9.7309   -0.4864   62.1844 H       1  ZINC000840464592    0.0600
     36 H36       -10.0125    1.6446   61.0005 H       1  ZINC000840464592    0.0600
     37 H37        -8.2594    1.9442   61.0715 H       1  ZINC000840464592    0.0600
     38 H38        -7.8677   -0.1216   59.7370 H       1  ZINC000840464592    0.0700
     39 H39        -9.6264   -0.3779   59.6382 H       1  ZINC000840464592    0.0700
     40 H40        -9.9392    1.6388   58.3665 H       1  ZINC000840464592    0.0500
     41 H41        -8.2772    2.1837   58.6968 H       1  ZINC000840464592    0.0500
     42 H42        -7.6052    2.9480   55.0754 H       1  ZINC000840464592    0.0800
     43 H43        -7.6296    3.1485   56.8439 H       1  ZINC000840464592    0.0700
     44 H44        -6.5450    1.9499   56.0989 H       1  ZINC000840464592    0.0800
     45 H45        -8.4962   -1.1831   53.0640 H       1  ZINC000840464592    0.1000
     46 H46        -9.8516   -2.1317   53.7066 H       1  ZINC000840464592    0.0800
     47 H47       -10.1158    0.3415   51.9528 H       1  ZINC000840464592    0.0800
     48 H48       -10.2745   -1.3380   51.3930 H       1  ZINC000840464592    0.1000
     49 H49       -12.5085   -0.8373   51.7864 H       1  ZINC000840464592    0.0900
     50 H50       -12.0511   -1.4590   53.3919 H       1  ZINC000840464592    0.1000
     51 H51       -12.7760    1.2533   52.7759 H       1  ZINC000840464592    0.4000
     52 H52       -12.6731   -1.2393   54.9650 H       1  ZINC000840464592    0.0900
     53 H53       -11.1480   -2.1147   54.6902 H       1  ZINC000840464592    0.1000
     54 H54       -12.9116   -0.2611   57.4286 H       1  ZINC000840464592    0.1200
     55 H55       -12.9457   -1.0525   59.7600 H       1  ZINC000840464592    0.1200
     56 H56       -11.7252   -3.0982   60.3838 H       1  ZINC000840464592    0.1200
     57 H57       -10.4714   -4.3529   58.6760 H       1  ZINC000840464592    0.1200
     58 H58       -10.4412   -3.5641   56.3436 H       1  ZINC000840464592    0.1200
@<TRIPOS>BOND
     1     1     2    1
     2     1    29    1
     3     1    30    1
     4     1    31    1
     5     2     3    1
     6     2    32    1
     7     2    33    1
     8     3     4    1
     9     3    34    1
    10     3    35    1
    11     4     5    1
    12     4    36    1
    13     4    37    1
    14     5     6    1
    15     5    38    1
    16     5    39    1
    17     6     7    1
    18     6    40    1
    19     6    41    1
    20     7     8    1
    21     8     9    1
    22     8    10    1
    23     8    11    1
    24    10    42    1
    25    10    43    1
    26    10    44    1
    27    11    12    2
    28    11    13   am
    29    13    20    1
    30    13    14    1
    31    14    15    1
    32    14    45    1
    33    14    46    1
    34    15    16    1
    35    15    47    1
    36    15    48    1
    37    16    17    1
    38    16    49    1
    39    16    50    1
    40    17    18   am
    41    17    51    1
    42    18    19    2
    43    18    20    1
    44    20    21    1
    45    20    22    1
    46    22    23    1
    47    22    52    1
    48    22    53    1
    49    23    28   ar
    50    23    24   ar
    51    24    25   ar
    52    24    54    1
    53    25    26   ar
    54    25    55    1
    55    26    27   ar
    56    26    56    1
    57    27    28   ar
    58    27    57    1
    59    28    58    1
@<TRIPOS>SUBSTRUCTURE
     1 ZINC000840464592        1 TEMP              0 ****  ****    0 ROOT


##########                                Name:    ZINC001296589646
##########                DOCK_Rotatable_Bonds:                   8
##########                         Heavy_Atoms:                  29
##########                    Molecular_Weight:             398.548
##########                DOCK_Rotatable_Bonds:                   8
##########                       Formal_Charge:          -0.0200008
##########                     HBond_Acceptors:                   6
##########                        HBond_Donors:                   0
##########                         Heavy_Atoms:                  29
##########                          Grid_Score:          -31.066601
##########                     Grid_vdw_energy:          -29.994865
##########                      Grid_es_energy:           -1.071735
##########           Internal_energy_repulsive:           23.213657

@<TRIPOS>MOLECULE
ZINC001296589646
 63 66 1 0 0
SMALL
USER_CHARGES


@<TRIPOS>ATOM
      1 C1        -12.9341    2.6973   56.5179 C.3     1  ZINC001296589646   -0.1500
      2 C2        -11.5407    2.0883   56.3489 C.3     1  ZINC001296589646    0.0500
      3 O3        -11.6591    0.6806   56.1333 O.3     1  ZINC001296589646   -0.3600
      4 C4        -10.4517   -0.0469   56.3679 C.3     1  ZINC001296589646    0.1800
      5 C5         -9.8844    0.2832   57.7245 C.2     1  ZINC001296589646    0.1500
      6 N6         -8.7964    0.9592   57.9627 N.2     1  ZINC001296589646   -0.2600
      7 N7         -8.6060    1.0553   59.2302 N.2     1  ZINC001296589646   -0.3200
      8 C8         -9.5703    0.4408   59.8737 C.2     1  ZINC001296589646    0.3600
      9 N9         -9.7043    0.3320   61.2488 N.3     1  ZINC001296589646   -0.4300
     10 C10        -8.7725   -0.6872   61.7956 C.3     1  ZINC001296589646    0.0300
     11 C11        -8.6723   -0.3082   63.2945 C.3     1  ZINC001296589646   -0.1200
     12 C12        -8.6940    1.2373   63.2626 C.3     1  ZINC001296589646   -0.1000
     13 H13        -7.6787    1.6310   63.3074 H       1  ZINC001296589646    0.0800
     14 C14        -9.5253    1.7809   64.4264 C.3     1  ZINC001296589646   -0.1400
     15 C15        -9.3501    1.6026   61.9180 C.3     1  ZINC001296589646    0.0500
     16 N16       -10.4193   -0.0660   58.9334 N.pl3   1  ZINC001296589646   -0.4600
     17 C17       -11.6446   -0.8337   59.1699 C.3     1  ZINC001296589646    0.1000
     18 C18       -12.6407    0.0241   59.9526 C.3     1  ZINC001296589646   -0.1300
     19 C19       -13.5717   -0.8835   60.7591 C.3     1  ZINC001296589646   -0.0500
     20 H20       -12.9792   -1.6114   61.3132 H       1  ZINC001296589646    0.0800
     21 C21       -14.3864   -0.0368   61.7390 C.3     1  ZINC001296589646   -0.1500
     22 C22       -14.5055   -1.6051   59.8218 C.ar    1  ZINC001296589646   -0.0800
     23 C23       -15.2627   -0.8891   58.9135 C.ar    1  ZINC001296589646   -0.1100
     24 C24       -16.1192   -1.5510   58.0538 C.ar    1  ZINC001296589646   -0.1200
     25 C25       -16.2183   -2.9289   58.1021 C.ar    1  ZINC001296589646   -0.1200
     26 C26       -15.4606   -3.6450   59.0098 C.ar    1  ZINC001296589646   -0.1200
     27 C27       -14.6008   -2.9834   59.8666 C.ar    1  ZINC001296589646   -0.1200
     28 C28        -9.4129    0.2300   55.2472 C.3     1  ZINC001296589646   -0.1400
     29 C29        -9.8659   -0.7860   54.1685 C.3     1  ZINC001296589646    0.0600
     30 O30       -10.2973   -1.9437   54.9015 O.3     1  ZINC001296589646   -0.3700
     31 C31       -10.6892   -1.5658   56.2264 C.3     1  ZINC001296589646    0.0400
     32 H32       -13.4914    2.5934   55.5870 H       1  ZINC001296589646    0.0600
     33 H33       -13.4627    2.1786   57.3177 H       1  ZINC001296589646    0.0700
     34 H34       -12.8407    3.7538   56.7695 H       1  ZINC001296589646    0.0700
     35 H35       -11.0453    2.5465   55.4929 H       1  ZINC001296589646    0.0500
     36 H36       -10.9531    2.2699   57.2487 H       1  ZINC001296589646    0.0600
     37 H37        -9.1863   -1.6888   61.6787 H       1  ZINC001296589646    0.0900
     38 H38        -7.7972   -0.6142   61.3144 H       1  ZINC001296589646    0.0600
     39 H39        -9.5280   -0.6947   63.8481 H       1  ZINC001296589646    0.0800
     40 H40        -7.7382   -0.6720   63.7228 H       1  ZINC001296589646    0.0800
     41 H41        -9.0749    1.4722   65.3698 H       1  ZINC001296589646    0.0600
     42 H42        -9.5529    2.8693   64.3759 H       1  ZINC001296589646    0.0600
     43 H43       -10.5402    1.3883   64.3626 H       1  ZINC001296589646    0.0600
     44 H44        -8.6470    2.1633   61.3020 H       1  ZINC001296589646    0.0800
     45 H45       -10.2491    2.1939   62.0919 H       1  ZINC001296589646    0.0900
     46 H46       -12.0839   -1.1202   58.2145 H       1  ZINC001296589646    0.1100
     47 H47       -11.4070   -1.7295   59.7438 H       1  ZINC001296589646    0.1000
     48 H48       -12.0985    0.6831   60.6308 H       1  ZINC001296589646    0.0800
     49 H49       -13.2293    0.6229   59.2575 H       1  ZINC001296589646    0.0700
     50 H50       -15.0498   -0.6834   62.3135 H       1  ZINC001296589646    0.0600
     51 H51       -13.7110    0.4850   62.4168 H       1  ZINC001296589646    0.0600
     52 H52       -14.9790    0.6911   61.1848 H       1  ZINC001296589646    0.0600
     53 H53       -15.1852    0.1875   58.8757 H       1  ZINC001296589646    0.1200
     54 H54       -16.7112   -0.9915   57.3446 H       1  ZINC001296589646    0.1200
     55 H55       -16.8880   -3.4460   57.4309 H       1  ZINC001296589646    0.1200
     56 H56       -15.5383   -4.7215   59.0478 H       1  ZINC001296589646    0.1200
     57 H57       -14.0088   -3.5429   60.5758 H       1  ZINC001296589646    0.1200
     58 H58        -9.4934    1.2536   54.8810 H       1  ZINC001296589646    0.1000
     59 H59        -8.4002    0.0154   55.5884 H       1  ZINC001296589646    0.1000
     60 H60       -10.6919   -0.3771   53.5867 H       1  ZINC001296589646    0.0700
     61 H61        -9.0317   -1.0412   53.5151 H       1  ZINC001296589646    0.0900
     62 H62       -10.0864   -2.1040   56.9579 H       1  ZINC001296589646    0.1000
     63 H63       -11.7448   -1.7908   56.3781 H       1  ZINC001296589646    0.0800
@<TRIPOS>BOND
     1     1     2    1
     2     1    32    1
     3     1    33    1
     4     1    34    1
     5     2     3    1
     6     2    35    1
     7     2    36    1
     8     3     4    1
     9     4    31    1
    10     4     5    1
    11     4    28    1
    12     5    16    1
    13     5     6    2
    14     6     7    1
    15     7     8    2
    16     8     9    1
    17     8    16    1
    18     9    15    1
    19     9    10    1
    20    10    11    1
    21    10    37    1
    22    10    38    1
    23    11    12    1
    24    11    39    1
    25    11    40    1
    26    12    13    1
    27    12    14    1
    28    12    15    1
    29    14    41    1
    30    14    42    1
    31    14    43    1
    32    15    44    1
    33    15    45    1
    34    16    17    1
    35    17    18    1
    36    17    46    1
    37    17    47    1
    38    18    19    1
    39    18    48    1
    40    18    49    1
    41    19    20    1
    42    19    21    1
    43    19    22    1
    44    21    50    1
    45    21    51    1
    46    21    52    1
    47    22    27   ar
    48    22    23   ar
    49    23    24   ar
    50    23    53    1
    51    24    25   ar
    52    24    54    1
    53    25    26   ar
    54    25    55    1
    55    26    27   ar
    56    26    56    1
    57    27    57    1
    58    28    29    1
    59    28    58    1
    60    28    59    1
    61    29    30    1
    62    29    60    1
    63    29    61    1
    64    30    31    1
    65    31    62    1
    66    31    63    1
@<TRIPOS>SUBSTRUCTURE
     1 ZINC001296589646        1 TEMP              0 ****  ****    0 ROOT


##########                                Name:    ZINC000437192871
##########                DOCK_Rotatable_Bonds:                   9
##########                         Heavy_Atoms:                  28
##########                    Molecular_Weight:             423.298
##########                DOCK_Rotatable_Bonds:                   9
##########                       Formal_Charge:         -8.9407e-08
##########                     HBond_Acceptors:                   9
##########                        HBond_Donors:                   1
##########                         Heavy_Atoms:                  28
##########                          Grid_Score:          -31.048515
##########                     Grid_vdw_energy:          -30.364691
##########                      Grid_es_energy:           -0.683825
##########           Internal_energy_repulsive:           15.509082

@<TRIPOS>MOLECULE
ZINC000437192871
 48 50 1 0 0
SMALL
USER_CHARGES


@<TRIPOS>ATOM
      1 C1         -8.5553    1.0390   64.2138 C.3     1  ZINC000437192871   -0.1700
      2 C2         -8.8157   -0.3471   63.6204 C.3     1  ZINC000437192871    0.1300
      3 N3         -9.4289   -0.2045   62.2975 N.pl3   1  ZINC000437192871   -0.3600
      4 C4         -8.7701   -0.0823   61.1261 C.2     1  ZINC000437192871    0.0700
      5 C5         -9.6934    0.0252   60.1428 C.2     1  ZINC000437192871   -0.2700
      6 C6         -9.4078    0.1798   58.6713 C.3     1  ZINC000437192871    0.1900
      7 N7        -10.4459    1.0112   58.0570 N.am    1  ZINC000437192871   -0.6000
      8 C8        -10.7737    2.3179   58.6327 C.3     1  ZINC000437192871    0.1100
      9 C9        -10.1394    3.4223   57.7848 C.3     1  ZINC000437192871    0.0600
     10 O10        -8.7172    3.2868   57.8127 O.3     1  ZINC000437192871   -0.5600
     11 C11       -11.0991    0.5740   56.9622 C.2     1  ZINC000437192871    0.6000
     12 O12       -11.9611    1.2641   56.4523 O.2     1  ZINC000437192871   -0.5000
     13 C13       -10.7694   -0.7395   56.3835 C.2     1  ZINC000437192871   -0.2200
     14 C14       -11.2826   -1.9702   56.7069 C.2     1  ZINC000437192871    0.0100
     15 C15       -12.3259   -2.2646   57.7539 C.3     1  ZINC000437192871   -0.0800
     16 O16       -10.6772   -2.8557   55.9123 O.3     1  ZINC000437192871    0.1100
     17 N17        -9.8787   -2.3557   55.1586 N.2     1  ZINC000437192871   -0.3200
     18 C18        -9.8086   -1.0570   55.3061 C.2     1  ZINC000437192871    0.0800
     19 C19        -8.9454   -0.1101   54.5600 C.ar    1  ZINC000437192871   -0.0200
     20 C20        -8.0235    0.6818   55.2420 C.ar    1  ZINC000437192871   -0.0700
     21 C21        -7.2220    1.5611   54.5431 C.ar    1  ZINC000437192871   -0.1000
     22 C22        -7.3319    1.6580   53.1663 C.ar    1  ZINC000437192871   -0.0100
     23 Cl23       -6.3198    2.7662   52.2937 Cl      1  ZINC000437192871   -0.0500
     24 C24        -8.2457    0.8741   52.4829 C.ar    1  ZINC000437192871   -0.1100
     25 C25        -9.0490   -0.0130   53.1719 C.ar    1  ZINC000437192871    0.0000
     26 Cl26      -10.1942   -0.9962   52.3144 Cl      1  ZINC000437192871   -0.0300
     27 C27       -10.9600   -0.0332   60.7336 C.2     1  ZINC000437192871    0.0600
     28 N28       -10.8026   -0.1770   62.0245 N.2     1  ZINC000437192871   -0.2900
     29 H29        -8.0991    0.9329   65.1980 H       1  ZINC000437192871    0.0800
     30 H30        -7.8829    1.5939   63.5595 H       1  ZINC000437192871    0.0600
     31 H31        -9.4984    1.5775   64.3066 H       1  ZINC000437192871    0.0700
     32 H32        -7.8726   -0.8856   63.5276 H       1  ZINC000437192871    0.1000
     33 H33        -9.4881   -0.9019   64.2746 H       1  ZINC000437192871    0.0900
     34 H34        -7.6979   -0.0719   60.9966 H       1  ZINC000437192871    0.1600
     35 H35        -8.4357    0.6547   58.5378 H       1  ZINC000437192871    0.0900
     36 H36        -9.4008   -0.8018   58.1975 H       1  ZINC000437192871    0.0800
     37 H37       -11.8560    2.4473   58.6471 H       1  ZINC000437192871    0.1000
     38 H38       -10.3874    2.3739   59.6504 H       1  ZINC000437192871    0.1000
     39 H39       -10.4922    3.3391   56.7568 H       1  ZINC000437192871    0.0600
     40 H40       -10.4197    4.3957   58.1874 H       1  ZINC000437192871    0.0500
     41 H41        -8.3332    3.3507   58.6979 H       1  ZINC000437192871    0.3800
     42 H42       -13.3097   -2.3015   57.2860 H       1  ZINC000437192871    0.1000
     43 H43       -12.1098   -3.2249   58.2220 H       1  ZINC000437192871    0.0900
     44 H44       -12.3126   -1.4802   58.5106 H       1  ZINC000437192871    0.0900
     45 H45        -7.9368    0.6077   56.3159 H       1  ZINC000437192871    0.1600
     46 H46        -6.5077    2.1754   55.0712 H       1  ZINC000437192871    0.1500
     47 H47        -8.3275    0.9534   51.4090 H       1  ZINC000437192871    0.1500
     48 H48       -11.9046    0.0252   60.2134 H       1  ZINC000437192871    0.1800
@<TRIPOS>BOND
     1     1     2    1
     2     1    29    1
     3     1    30    1
     4     1    31    1
     5     2     3    1
     6     2    32    1
     7     2    33    1
     8     3    28    1
     9     3     4    1
    10     4     5    2
    11     4    34    1
    12     5     6    1
    13     5    27    1
    14     6     7    1
    15     6    35    1
    16     6    36    1
    17     7     8    1
    18     7    11   am
    19     8     9    1
    20     8    37    1
    21     8    38    1
    22     9    10    1
    23     9    39    1
    24     9    40    1
    25    10    41    1
    26    11    12    2
    27    11    13    1
    28    13    18    1
    29    13    14    2
    30    14    15    1
    31    14    16    1
    32    15    42    1
    33    15    43    1
    34    15    44    1
    35    16    17    1
    36    17    18    2
    37    18    19    1
    38    19    25   ar
    39    19    20   ar
    40    20    21   ar
    41    20    45    1
    42    21    22   ar
    43    21    46    1
    44    22    23    1
    45    22    24   ar
    46    24    25   ar
    47    24    47    1
    48    25    26    1
    49    27    28    2
    50    27    48    1
@<TRIPOS>SUBSTRUCTURE
     1 ZINC000437192871        1 TEMP              0 ****  ****    0 ROOT


##########                                Name:    ZINC000443394081
##########                DOCK_Rotatable_Bonds:                   8
##########                         Heavy_Atoms:                  27
##########                    Molecular_Weight:             389.878
##########                DOCK_Rotatable_Bonds:                   8
##########                       Formal_Charge:          -0.0300003
##########                     HBond_Acceptors:                   6
##########                        HBond_Donors:                   1
##########                         Heavy_Atoms:                  27
##########                          Grid_Score:          -31.047668
##########                     Grid_vdw_energy:          -30.282368
##########                      Grid_es_energy:           -0.765300
##########           Internal_energy_repulsive:           33.464500

@<TRIPOS>MOLECULE
ZINC000443394081
 51 53 1 0 0
SMALL
USER_CHARGES


@<TRIPOS>ATOM
      1 C1         -8.0595    1.9232   59.2406 C.3     1  ZINC000443394081    0.0200
      2 O2         -7.9599    0.5403   59.5868 O.3     1  ZINC000443394081   -0.3000
      3 C3         -9.0048   -0.2591   59.2427 C.ar    1  ZINC000443394081    0.1000
      4 C4         -9.3600   -0.3983   57.9153 C.ar    1  ZINC000443394081   -0.1200
      5 C5        -10.4342   -1.2211   57.5651 C.ar    1  ZINC000443394081   -0.1300
      6 C6        -10.8176   -1.3738   56.1480 C.2     1  ZINC000443394081    0.5700
      7 O7        -10.2776   -2.2181   55.4596 O.2     1  ZINC000443394081   -0.4900
      8 N8        -11.7664   -0.5774   55.6170 N.am    1  ZINC000443394081   -0.6100
      9 C9        -12.4988    0.4822   56.3342 C.3     1  ZINC000443394081    0.0900
     10 C10       -12.9621    1.4626   55.2278 C.3     1  ZINC000443394081   -0.1300
     11 C11       -13.3048    0.4872   54.0709 C.3     1  ZINC000443394081   -0.1000
     12 H12       -14.3079    0.0792   54.1948 H       1  ZINC000443394081    0.0900
     13 C13       -13.1701    1.1856   52.7163 C.3     1  ZINC000443394081   -0.1500
     14 C14       -12.2378   -0.6169   54.2249 C.3     1  ZINC000443394081    0.1400
     15 H15       -12.6797   -1.5913   54.0162 H       1  ZINC000443394081    0.0800
     16 C16       -11.0763   -0.3559   53.2639 C.3     1  ZINC000443394081    0.0600
     17 O17       -11.4727   -0.6965   51.9339 O.3     1  ZINC000443394081   -0.5400
     18 C18       -11.1437   -1.8990   58.5590 C.ar    1  ZINC000443394081   -0.1000
     19 C19       -10.7844   -1.7554   59.8820 C.ar    1  ZINC000443394081   -0.1800
     20 C20        -9.7142   -0.9428   60.2295 C.ar    1  ZINC000443394081    0.1300
     21 O21        -9.3641   -0.8046   61.5342 O.3     1  ZINC000443394081   -0.3000
     22 C22       -10.2253   -0.0146   62.3567 C.3     1  ZINC000443394081    0.1000
     23 C23        -9.5784    0.1996   63.7009 C.ar    1  ZINC000443394081   -0.0800
     24 C24        -8.2377   -0.0860   63.8761 C.ar    1  ZINC000443394081   -0.0800
     25 C25        -7.6441    0.1104   65.1093 C.ar    1  ZINC000443394081   -0.1100
     26 C26        -8.3913    0.5920   66.1677 C.ar    1  ZINC000443394081   -0.1000
     27 C27        -9.7325    0.8780   65.9936 C.ar    1  ZINC000443394081   -0.1100
     28 C28       -10.3255    0.6876   64.7585 C.ar    1  ZINC000443394081   -0.0300
     29 Cl29      -12.0097    1.0466   64.5391 Cl      1  ZINC000443394081   -0.0700
     30 H30        -7.1621    2.4461   59.5713 H       1  ZINC000443394081    0.1000
     31 H31        -8.1593    2.0208   58.1597 H       1  ZINC000443394081    0.0600
     32 H32        -8.9331    2.3575   59.7269 H       1  ZINC000443394081    0.0600
     33 H33        -8.8091    0.1277   57.1497 H       1  ZINC000443394081    0.1500
     34 H34       -13.3600    0.0627   56.8542 H       1  ZINC000443394081    0.0700
     35 H35       -11.8393    0.9892   57.0385 H       1  ZINC000443394081    0.0800
     36 H36       -13.8443    2.0193   55.5436 H       1  ZINC000443394081    0.0900
     37 H37       -12.1564    2.1390   54.9428 H       1  ZINC000443394081    0.0800
     38 H38       -12.1530    1.5596   52.5999 H       1  ZINC000443394081    0.0600
     39 H39       -13.3899    0.4763   51.9183 H       1  ZINC000443394081    0.0600
     40 H40       -13.8716    2.0184   52.6655 H       1  ZINC000443394081    0.0600
     41 H41       -10.8027    0.6985   53.3027 H       1  ZINC000443394081    0.0600
     42 H42       -10.2201   -0.9644   53.5550 H       1  ZINC000443394081    0.0400
     43 H43       -10.7991   -0.5153   51.2642 H       1  ZINC000443394081    0.3700
     44 H44       -11.9741   -2.5353   58.2910 H       1  ZINC000443394081    0.1400
     45 H45       -11.3342   -2.2797   60.6495 H       1  ZINC000443394081    0.1400
     46 H46       -10.3993    0.9498   61.8795 H       1  ZINC000443394081    0.0800
     47 H47       -11.1757   -0.5313   62.4891 H       1  ZINC000443394081    0.0800
     48 H48        -7.6535   -0.4630   63.0496 H       1  ZINC000443394081    0.1400
     49 H49        -6.5963   -0.1129   65.2457 H       1  ZINC000443394081    0.1300
     50 H50        -7.9273    0.7445   67.1309 H       1  ZINC000443394081    0.1300
     51 H51       -10.3162    1.2544   66.8208 H       1  ZINC000443394081    0.1400
@<TRIPOS>BOND
     1     1     2    1
     2     1    30    1
     3     1    31    1
     4     1    32    1
     5     2     3    1
     6     3    20   ar
     7     3     4   ar
     8     4     5   ar
     9     4    33    1
    10     5     6    1
    11     5    18   ar
    12     6     7    2
    13     6     8   am
    14     8    14    1
    15     8     9    1
    16     9    10    1
    17     9    34    1
    18     9    35    1
    19    10    11    1
    20    10    36    1
    21    10    37    1
    22    11    12    1
    23    11    13    1
    24    11    14    1
    25    13    38    1
    26    13    39    1
    27    13    40    1
    28    14    15    1
    29    14    16    1
    30    16    17    1
    31    16    41    1
    32    16    42    1
    33    17    43    1
    34    18    19   ar
    35    18    44    1
    36    19    20   ar
    37    19    45    1
    38    20    21    1
    39    21    22    1
    40    22    23    1
    41    22    46    1
    42    22    47    1
    43    23    28   ar
    44    23    24   ar
    45    24    25   ar
    46    24    48    1
    47    25    26   ar
    48    25    49    1
    49    26    27   ar
    50    26    50    1
    51    27    28   ar
    52    27    51    1
    53    28    29    1
@<TRIPOS>SUBSTRUCTURE
     1 ZINC000443394081        1 TEMP              0 ****  ****    0 ROOT


##########                                Name:    ZINC000432833246
##########                DOCK_Rotatable_Bonds:                   5
##########                         Heavy_Atoms:                  25
##########                    Molecular_Weight:             400.318
##########                DOCK_Rotatable_Bonds:                   5
##########                       Formal_Charge:        -3.20375e-07
##########                     HBond_Acceptors:                   4
##########                        HBond_Donors:                   1
##########                         Heavy_Atoms:                  25
##########                          Grid_Score:          -31.033930
##########                     Grid_vdw_energy:          -30.309208
##########                      Grid_es_energy:           -0.724722
##########           Internal_energy_repulsive:            4.507068

@<TRIPOS>MOLECULE
ZINC000432833246
 47 51 1 0 0
SMALL
USER_CHARGES


@<TRIPOS>ATOM
      1 O1        -11.5168    0.8328   64.8525 O.2     1  ZINC000432833246   -0.5200
      2 C2        -10.6055    0.8359   64.0522 C.2     1  ZINC000432833246    0.5200
      3 C3        -10.7721    0.7940   62.5491 C.3     1  ZINC000432833246   -0.1500
      4 C4         -9.3947    1.2355   62.0025 C.3     1  ZINC000432833246   -0.1100
      5 H5         -9.3750    2.3094   61.8165 H       1  ZINC000432833246    0.1000
      6 C6         -9.0330    0.4566   60.7362 C.3     1  ZINC000432833246    0.1300
      7 N7         -9.7765    1.0024   59.5980 N.pl3   1  ZINC000432833246   -0.7200
      8 C8         -9.1602    1.1253   58.3620 C.ar    1  ZINC000432833246    0.2800
      9 C9         -9.4873    0.2568   57.2936 C.ar    1  ZINC000432833246   -0.1500
     10 C10       -10.4441   -0.7567   57.4439 C.ar    1  ZINC000432833246   -0.0700
     11 C11       -10.7323   -1.5729   56.3918 C.ar    1  ZINC000432833246   -0.1300
     12 C12       -10.0879   -1.4138   55.1675 C.ar    1  ZINC000432833246   -0.0600
     13 C13        -9.1534   -0.4393   54.9876 C.ar    1  ZINC000432833246   -0.0800
     14 Br14       -8.2943   -0.2454   53.3141 Br      1  ZINC000432833246   -0.0300
     15 C15        -8.8304    0.4225   56.0510 C.ar    1  ZINC000432833246    0.1900
     16 N16        -7.9170    1.3884   55.9019 N.ar    1  ZINC000432833246   -0.5000
     17 C17        -7.6053    2.2004   56.8854 C.ar    1  ZINC000432833246    0.2400
     18 C18        -6.5677    3.2680   56.6525 C.3     1  ZINC000432833246   -0.1100
     19 C19        -6.6831    4.0980   55.3723 C.3     1  ZINC000432833246   -0.1700
     20 C20        -7.0257    4.7261   56.7248 C.3     1  ZINC000432833246   -0.1600
     21 C21        -8.2082    2.1063   58.1320 C.ar    1  ZINC000432833246   -0.2700
     22 C22        -8.4568    0.8593   63.1708 C.3     1  ZINC000432833246    0.1100
     23 N23        -9.3006    0.8828   64.3715 N.am    1  ZINC000432833246   -0.5900
     24 C24        -8.7865    0.9408   65.7421 C.3     1  ZINC000432833246    0.0800
     25 C25        -8.7193   -0.3705   66.5275 C.3     1  ZINC000432833246   -0.1900
     26 C26        -7.4331    0.2825   66.0174 C.3     1  ZINC000432833246   -0.1900
     27 H27       -11.0068   -0.2181   62.2194 H       1  ZINC000432833246    0.1100
     28 H28       -11.5492    1.4894   62.2320 H       1  ZINC000432833246    0.1000
     29 H29        -7.9631    0.5461   60.5479 H       1  ZINC000432833246    0.0800
     30 H30        -9.2919   -0.5938   60.8694 H       1  ZINC000432833246    0.0700
     31 H31       -10.6999    1.2778   59.7090 H       1  ZINC000432833246    0.4000
     32 H32       -10.9497   -0.8900   58.3889 H       1  ZINC000432833246    0.1300
     33 H33       -11.4696   -2.3535   56.5087 H       1  ZINC000432833246    0.1400
     34 H34       -10.3326   -2.0735   54.3482 H       1  ZINC000432833246    0.1400
     35 H35        -5.5658    3.0368   57.0140 H       1  ZINC000432833246    0.1300
     36 H36        -5.7570    4.4128   54.8914 H       1  ZINC000432833246    0.1000
     37 H37        -7.5096    3.8719   54.6987 H       1  ZINC000432833246    0.1000
     38 H38        -8.0775    4.9131   56.9408 H       1  ZINC000432833246    0.0900
     39 H39        -6.3249    5.4540   57.1336 H       1  ZINC000432833246    0.1000
     40 H40        -7.9312    2.7891   58.9215 H       1  ZINC000432833246    0.1400
     41 H41        -8.0423   -0.1368   63.0160 H       1  ZINC000432833246    0.0800
     42 H42        -7.6552    1.5923   63.2620 H       1  ZINC000432833246    0.0900
     43 H43        -9.0269    1.8480   66.2964 H       1  ZINC000432833246    0.1300
     44 H44        -8.9157   -0.3263   67.5987 H       1  ZINC000432833246    0.1000
     45 H45        -9.0576   -1.2764   66.0244 H       1  ZINC000432833246    0.1300
     46 H46        -6.9252   -0.1937   65.1788 H       1  ZINC000432833246    0.0900
     47 H47        -6.7833    0.7565   66.7532 H       1  ZINC000432833246    0.1000
@<TRIPOS>BOND
     1     1     2    2
     2     2    23   am
     3     2     3    1
     4     3     4    1
     5     3    27    1
     6     3    28    1
     7     4     5    1
     8     4     6    1
     9     4    22    1
    10     6     7    1
    11     6    29    1
    12     6    30    1
    13     7     8    1
    14     7    31    1
    15     8    21   ar
    16     8     9   ar
    17     9    15   ar
    18     9    10   ar
    19    10    11   ar
    20    10    32    1
    21    11    12   ar
    22    11    33    1
    23    12    13   ar
    24    12    34    1
    25    13    14    1
    26    13    15   ar
    27    15    16   ar
    28    16    17   ar
    29    17    18    1
    30    17    21   ar
    31    18    20    1
    32    18    19    1
    33    18    35    1
    34    19    20    1
    35    19    36    1
    36    19    37    1
    37    20    38    1
    38    20    39    1
    39    21    40    1
    40    22    23    1
    41    22    41    1
    42    22    42    1
    43    23    24    1
    44    24    26    1
    45    24    25    1
    46    24    43    1
    47    25    26    1
    48    25    44    1
    49    25    45    1
    50    26    46    1
    51    26    47    1
@<TRIPOS>SUBSTRUCTURE
     1 ZINC000432833246        1 TEMP              0 ****  ****    0 ROOT


##########                                Name:    ZINC000046390957
##########                DOCK_Rotatable_Bonds:                   9
##########                         Heavy_Atoms:                  29
##########                    Molecular_Weight:             408.521
##########                DOCK_Rotatable_Bonds:                   9
##########                       Formal_Charge:           0.0100005
##########                     HBond_Acceptors:                   6
##########                        HBond_Donors:                   1
##########                         Heavy_Atoms:                  29
##########                          Grid_Score:          -31.032194
##########                     Grid_vdw_energy:          -29.860600
##########                      Grid_es_energy:           -1.171595
##########           Internal_energy_repulsive:           12.472304

@<TRIPOS>MOLECULE
ZINC000046390957
 53 55 1 0 0
SMALL
USER_CHARGES


@<TRIPOS>ATOM
      1 C1         -6.8794    2.8032   56.5491 C.3     1  ZINC000046390957   -0.1100
      2 C2         -7.8207    1.6964   56.1491 C.ar    1  ZINC000046390957   -0.0600
      3 C3         -8.7448    1.2137   57.0550 C.ar    1  ZINC000046390957   -0.1200
      4 C4         -9.6085    0.1978   56.6890 C.ar    1  ZINC000046390957   -0.1100
      5 C5         -9.5506   -0.3376   55.4153 C.ar    1  ZINC000046390957   -0.1200
      6 C6         -8.6291    0.1410   54.5046 C.ar    1  ZINC000046390957   -0.0800
      7 C7         -8.5670   -0.4428   53.1167 C.3     1  ZINC000046390957   -0.1100
      8 C8         -7.7638    1.1647   54.8675 C.ar    1  ZINC000046390957    0.1300
      9 N9         -6.8294    1.6523   53.9470 N.am    1  ZINC000046390957   -0.6800
     10 C10        -7.1704    2.6459   53.1028 C.2     1  ZINC000046390957    0.5200
     11 O11        -8.2873    3.1175   53.1407 O.2     1  ZINC000046390957   -0.4900
     12 C12        -6.1641    3.1710   52.1114 C.3     1  ZINC000046390957    0.0700
     13 H13        -5.2490    2.5823   52.1762 H       1  ZINC000046390957    0.1100
     14 C14        -6.7388    3.0661   50.6973 C.3     1  ZINC000046390957   -0.1700
     15 O15        -5.8682    4.5604   52.4118 O.3     1  ZINC000046390957   -0.3300
     16 C16        -4.7504    4.8077   53.1125 C.2     1  ZINC000046390957    0.4700
     17 O17        -4.6883    4.4999   54.2793 O.2     1  ZINC000046390957   -0.4800
     18 C18        -3.5728    5.4691   52.4440 C.3     1  ZINC000046390957   -0.0300
     19 C19        -2.2937    4.9229   53.0243 C.2     1  ZINC000046390957    0.0800
     20 C20        -1.5665    3.9827   52.4134 C.2     1  ZINC000046390957   -0.2500
     21 S21        -0.1664    3.6373   53.4258 S.3     1  ZINC000046390957    0.1300
     22 C22        -0.6982    4.7914   54.5698 C.2     1  ZINC000046390957    0.0600
     23 C23         0.0174    5.1274   55.8528 C.3     1  ZINC000046390957    0.0000
     24 C24        -0.3154    4.0946   56.8987 C.ar    1  ZINC000046390957   -0.0900
     25 C25        -1.5970    3.5833   56.9821 C.ar    1  ZINC000046390957   -0.0900
     26 C26        -1.9022    2.6361   57.9415 C.ar    1  ZINC000046390957   -0.1200
     27 C27        -0.9258    2.1998   58.8172 C.ar    1  ZINC000046390957   -0.1200
     28 C28         0.3562    2.7104   58.7333 C.ar    1  ZINC000046390957   -0.1200
     29 C29         0.6625    3.6545   57.7711 C.ar    1  ZINC000046390957   -0.1100
     30 N30        -1.7979    5.3372   54.1727 N.2     1  ZINC000046390957   -0.4500
     31 H31        -7.3783    3.7651   56.4308 H       1  ZINC000046390957    0.0800
     32 H32        -6.5859    2.6719   57.5906 H       1  ZINC000046390957    0.0700
     33 H33        -5.9930    2.7732   55.9153 H       1  ZINC000046390957    0.0600
     34 H34        -8.7925    1.6299   58.0505 H       1  ZINC000046390957    0.1300
     35 H35       -10.3297   -0.1784   57.3993 H       1  ZINC000046390957    0.1300
     36 H36       -10.2263   -1.1313   55.1325 H       1  ZINC000046390957    0.1300
     37 H37        -9.2341    0.1135   52.4583 H       1  ZINC000046390957    0.0700
     38 H38        -7.5463   -0.3765   52.7400 H       1  ZINC000046390957    0.0600
     39 H39        -8.8756   -1.4878   53.1479 H       1  ZINC000046390957    0.0700
     40 H40        -5.9363    1.2752   53.9167 H       1  ZINC000046390957    0.4100
     41 H41        -6.9609    2.0230   50.4718 H       1  ZINC000046390957    0.0800
     42 H42        -7.6539    3.6547   50.6324 H       1  ZINC000046390957    0.0800
     43 H43        -6.0109    3.4459   49.9802 H       1  ZINC000046390957    0.0800
     44 H44        -3.6018    5.2666   51.3734 H       1  ZINC000046390957    0.1200
     45 H45        -3.6173    6.5452   52.6115 H       1  ZINC000046390957    0.1300
     46 H46        -1.7963    3.5169   51.4666 H       1  ZINC000046390957    0.1800
     47 H47         1.0932    5.1338   55.6779 H       1  ZINC000046390957    0.1000
     48 H48        -0.3003    6.1108   56.1993 H       1  ZINC000046390957    0.1000
     49 H49        -2.3599    3.9243   56.2978 H       1  ZINC000046390957    0.1200
     50 H50        -2.9037    2.2372   58.0070 H       1  ZINC000046390957    0.1200
     51 H51        -1.1644    1.4602   59.5673 H       1  ZINC000046390957    0.1200
     52 H52         1.1190    2.3698   59.4177 H       1  ZINC000046390957    0.1200
     53 H53         1.6639    4.0534   57.7056 H       1  ZINC000046390957    0.1200
@<TRIPOS>BOND
     1     1     2    1
     2     1    31    1
     3     1    32    1
     4     1    33    1
     5     2     8   ar
     6     2     3   ar
     7     3     4   ar
     8     3    34    1
     9     4     5   ar
    10     4    35    1
    11     5     6   ar
    12     5    36    1
    13     6     7    1
    14     6     8   ar
    15     7    37    1
    16     7    38    1
    17     7    39    1
    18     8     9    1
    19     9    10   am
    20     9    40    1
    21    10    11    2
    22    10    12    1
    23    12    13    1
    24    12    14    1
    25    12    15    1
    26    14    41    1
    27    14    42    1
    28    14    43    1
    29    15    16    1
    30    16    17    2
    31    16    18    1
    32    18    19    1
    33    18    44    1
    34    18    45    1
    35    19    30    1
    36    19    20    2
    37    20    21    1
    38    20    46    1
    39    21    22    1
    40    22    23    1
    41    22    30    2
    42    23    24    1
    43    23    47    1
    44    23    48    1
    45    24    29   ar
    46    24    25   ar
    47    25    26   ar
    48    25    49    1
    49    26    27   ar
    50    26    50    1
    51    27    28   ar
    52    27    51    1
    53    28    29   ar
    54    28    52    1
    55    29    53    1
@<TRIPOS>SUBSTRUCTURE
     1 ZINC000046390957        1 TEMP              0 ****  ****    0 ROOT


##########                                Name:    ZINC000508571532
##########                DOCK_Rotatable_Bonds:                   9
##########                         Heavy_Atoms:                  30
##########                    Molecular_Weight:             422.407
##########                DOCK_Rotatable_Bonds:                   9
##########                       Formal_Charge:           0.0100001
##########                     HBond_Acceptors:                  10
##########                        HBond_Donors:                   0
##########                         Heavy_Atoms:                  30
##########                          Grid_Score:          -31.027771
##########                     Grid_vdw_energy:          -31.096329
##########                      Grid_es_energy:            0.068558
##########           Internal_energy_repulsive:           20.291405

@<TRIPOS>MOLECULE
ZINC000508571532
 51 53 1 0 0
SMALL
USER_CHARGES


@<TRIPOS>ATOM
      1 C1         -8.8002   -0.0523   65.3238 C.3     1  ZINC000508571532    0.0300
      2 O2         -8.8732    1.0953   64.4756 O.3     1  ZINC000508571532   -0.3200
      3 C3         -8.8400    0.8748   63.1342 C.ar    1  ZINC000508571532    0.0900
      4 C4         -8.8929   -0.4211   62.6430 C.ar    1  ZINC000508571532   -0.1700
      5 C5         -8.8592   -0.6452   61.2804 C.ar    1  ZINC000508571532   -0.1100
      6 C6         -8.7729    0.4259   60.4034 C.ar    1  ZINC000508571532    0.0900
      7 O7         -8.7392    0.2052   59.0621 O.3     1  ZINC000508571532   -0.3100
      8 C8         -8.7953    1.3540   58.2140 C.3     1  ZINC000508571532    0.1500
      9 C9         -8.9030    0.9130   56.7771 C.2     1  ZINC000508571532    0.1700
     10 N10        -9.6368   -0.0626   56.3216 N.2     1  ZINC000508571532   -0.2500
     11 N11        -9.4917   -0.1661   55.0487 N.2     1  ZINC000508571532   -0.3000
     12 C12        -8.6507    0.7453   54.6203 C.2     1  ZINC000508571532    0.3500
     13 N13        -8.2469    0.9426   53.3094 N.3     1  ZINC000508571532   -0.4600
     14 C14        -8.4184   -0.2817   52.5158 C.3     1  ZINC000508571532    0.0300
     15 C15        -8.9664    2.0695   52.7008 C.3     1  ZINC000508571532    0.1100
     16 C16        -8.0271    2.8450   51.8135 C.ar    1  ZINC000508571532   -0.0900
     17 C17        -6.6631    2.7688   52.0170 C.ar    1  ZINC000508571532   -0.0600
     18 C18        -5.8006    3.4806   51.2034 C.ar    1  ZINC000508571532   -0.1300
     19 C19        -6.3009    4.2694   50.1844 C.ar    1  ZINC000508571532   -0.0700
     20 C20        -7.6646    4.3487   49.9764 C.ar    1  ZINC000508571532   -0.1900
     21 C21        -8.5315    3.6316   50.7878 C.ar    1  ZINC000508571532    0.1100
     22 O22        -9.8731    3.7079   50.5853 O.3     1  ZINC000508571532   -0.3100
     23 C23       -10.5297    4.8969   51.0292 C.3     1  ZINC000508571532    0.6000
     24 F24       -11.7359    4.5589   51.6522 F       1  ZINC000508571532   -0.1600
     25 F25        -9.7081    5.5714   51.9388 F       1  ZINC000508571532   -0.1300
     26 F26       -10.7879    5.7247   49.9314 F       1  ZINC000508571532   -0.1600
     27 N27        -8.2531    1.4662   55.7086 N.pl3   1  ZINC000508571532   -0.4500
     28 C28        -7.3169    2.5927   55.7295 C.3     1  ZINC000508571532    0.0800
     29 C29        -8.7214    1.7219   60.8946 C.ar    1  ZINC000508571532   -0.1700
     30 C30        -8.7590    1.9462   62.2570 C.ar    1  ZINC000508571532   -0.1100
     31 H31        -8.8365    0.2634   66.3664 H       1  ZINC000508571532    0.1000
     32 H32        -9.6418   -0.7128   65.1147 H       1  ZINC000508571532    0.0600
     33 H33        -7.8666   -0.5832   65.1373 H       1  ZINC000508571532    0.0600
     34 H34        -8.9601   -1.2551   63.3259 H       1  ZINC000508571532    0.1400
     35 H35        -8.8997   -1.6544   60.8979 H       1  ZINC000508571532    0.1300
     36 H36        -9.6652    1.9565   58.4753 H       1  ZINC000508571532    0.0800
     37 H37        -7.8901    1.9469   58.3452 H       1  ZINC000508571532    0.1000
     38 H38        -9.4814   -0.4910   52.3959 H       1  ZINC000508571532    0.0600
     39 H39        -7.9619   -0.1461   51.5354 H       1  ZINC000508571532    0.0800
     40 H40        -7.9393   -1.1164   53.0274 H       1  ZINC000508571532    0.0700
     41 H41        -9.7982    1.6911   52.1066 H       1  ZINC000508571532    0.0700
     42 H42        -9.3479    2.7231   53.4853 H       1  ZINC000508571532    0.0900
     43 H43        -6.2698    2.1532   52.8124 H       1  ZINC000508571532    0.1400
     44 H44        -4.7345    3.4202   51.3646 H       1  ZINC000508571532    0.1300
     45 H45        -5.6254    4.8246   49.5505 H       1  ZINC000508571532    0.1400
     46 H46        -8.0549    4.9654   49.1804 H       1  ZINC000508571532    0.1400
     47 H47        -7.8734    3.5287   55.6812 H       1  ZINC000508571532    0.0900
     48 H48        -6.7338    2.5637   56.6500 H       1  ZINC000508571532    0.0900
     49 H49        -6.6466    2.5240   54.8727 H       1  ZINC000508571532    0.1000
     50 H50        -8.6545    2.5559   60.2117 H       1  ZINC000508571532    0.1400
     51 H51        -8.7189    2.9554   62.6395 H       1  ZINC000508571532    0.1400
@<TRIPOS>BOND
     1     1     2    1
     2     1    31    1
     3     1    32    1
     4     1    33    1
     5     2     3    1
     6     3    30   ar
     7     3     4   ar
     8     4     5   ar
     9     4    34    1
    10     5     6   ar
    11     5    35    1
    12     6     7    1
    13     6    29   ar
    14     7     8    1
    15     8     9    1
    16     8    36    1
    17     8    37    1
    18     9    27    1
    19     9    10    2
    20    10    11    1
    21    11    12    2
    22    12    13    1
    23    12    27    1
    24    13    14    1
    25    13    15    1
    26    14    38    1
    27    14    39    1
    28    14    40    1
    29    15    16    1
    30    15    41    1
    31    15    42    1
    32    16    21   ar
    33    16    17   ar
    34    17    18   ar
    35    17    43    1
    36    18    19   ar
    37    18    44    1
    38    19    20   ar
    39    19    45    1
    40    20    21   ar
    41    20    46    1
    42    21    22    1
    43    22    23    1
    44    23    24    1
    45    23    25    1
    46    23    26    1
    47    27    28    1
    48    28    47    1
    49    28    48    1
    50    28    49    1
    51    29    30   ar
    52    29    50    1
    53    30    51    1
@<TRIPOS>SUBSTRUCTURE
     1 ZINC000508571532        1 TEMP              0 ****  ****    0 ROOT


##########                                Name:    ZINC000643274279
##########                DOCK_Rotatable_Bonds:                   6
##########                         Heavy_Atoms:                  29
##########                    Molecular_Weight:             392.454
##########                DOCK_Rotatable_Bonds:                   6
##########                       Formal_Charge:         -0.00999939
##########                     HBond_Acceptors:                   6
##########                        HBond_Donors:                   2
##########                         Heavy_Atoms:                  29
##########                          Grid_Score:          -31.023785
##########                     Grid_vdw_energy:          -27.471333
##########                      Grid_es_energy:           -3.552451
##########           Internal_energy_repulsive:            6.606981

@<TRIPOS>MOLECULE
ZINC000643274279
 53 56 1 0 0
SMALL
USER_CHARGES


@<TRIPOS>ATOM
      1 O1         -7.1260    0.2830   54.2033 O.2     1  ZINC000643274279   -0.4900
      2 C2         -7.8441    1.2080   53.8838 C.2     1  ZINC000643274279    0.5100
      3 N3         -8.7910    1.6511   54.7343 N.am    1  ZINC000643274279   -0.6400
      4 C4         -8.9500    1.0418   55.9820 C.ar    1  ZINC000643274279    0.1300
      5 C5         -8.2825    1.5483   57.0916 C.ar    1  ZINC000643274279   -0.1000
      6 C6         -8.4245    0.9444   58.3290 C.ar    1  ZINC000643274279   -0.1000
      7 C7         -9.2295   -0.1652   58.4624 C.ar    1  ZINC000643274279   -0.0600
      8 C8         -9.3327   -0.8724   59.8023 C.3     1  ZINC000643274279   -0.0900
      9 C9        -10.7406   -0.6921   60.3585 C.3     1  ZINC000643274279   -0.1200
     10 C10       -11.6820   -1.7754   59.8540 C.3     1  ZINC000643274279   -0.1100
     11 C11       -12.0463   -1.6465   58.3966 C.3     1  ZINC000643274279   -0.1600
     12 C12       -10.8136   -1.8299   57.5328 C.2     1  ZINC000643274279    0.4100
     13 O13       -10.5699   -2.8926   57.0021 O.2     1  ZINC000643274279   -0.4400
     14 C14        -9.9232   -0.6685   57.3620 C.ar    1  ZINC000643274279   -0.1300
     15 C15        -9.7781   -0.0638   56.1120 C.ar    1  ZINC000643274279   -0.1000
     16 C16        -7.6742    1.8592   52.5504 C.2     1  ZINC000643274279    0.5200
     17 O17        -8.2560    1.4179   51.5811 O.2     1  ZINC000643274279   -0.5000
     18 N18        -6.8747    2.9367   52.4237 N.am    1  ZINC000643274279   -0.5800
     19 C19        -6.1120    3.5737   53.5128 C.3     1  ZINC000643274279    0.0900
     20 C20        -4.9402    4.2985   52.8049 C.3     1  ZINC000643274279   -0.1400
     21 C21        -5.6249    4.8049   51.5081 C.3     1  ZINC000643274279   -0.1200
     22 C22        -6.6136    3.6678   51.1751 C.3     1  ZINC000643274279    0.1800
     23 H23        -6.1747    3.0002   50.4336 H       1  ZINC000643274279    0.0900
     24 C24        -7.9005    4.2463   50.6457 C.ar    1  ZINC000643274279   -0.1000
     25 C25        -8.3351    3.9152   49.3756 C.ar    1  ZINC000643274279   -0.0900
     26 C26        -9.5144    4.4441   48.8879 C.ar    1  ZINC000643274279   -0.1400
     27 C27       -10.2632    5.3078   49.6740 C.ar    1  ZINC000643274279    0.1100
     28 O28       -11.4239    5.8291   49.1967 O.3     1  ZINC000643274279   -0.5000
     29 C29        -9.8253    5.6381   50.9482 C.ar    1  ZINC000643274279   -0.1400
     30 C30        -8.6477    5.1028   51.4331 C.ar    1  ZINC000643274279   -0.0900
     31 H31        -9.3622    2.3928   54.4805 H       1  ZINC000643274279    0.4200
     32 H32        -7.6495    2.4173   56.9874 H       1  ZINC000643274279    0.1400
     33 H33        -7.9047    1.3422   59.1880 H       1  ZINC000643274279    0.1400
     34 H34        -9.1269   -1.9346   59.6702 H       1  ZINC000643274279    0.0800
     35 H35        -8.6095   -0.4443   60.4965 H       1  ZINC000643274279    0.0800
     36 H36       -10.7015   -0.7328   61.4471 H       1  ZINC000643274279    0.0800
     37 H37       -11.1223    0.2822   60.0531 H       1  ZINC000643274279    0.0700
     38 H38       -11.2092   -2.7452   60.0087 H       1  ZINC000643274279    0.0700
     39 H39       -12.5976   -1.7417   60.4446 H       1  ZINC000643274279    0.0800
     40 H40       -12.7840   -2.4067   58.1397 H       1  ZINC000643274279    0.0900
     41 H41       -12.4704   -0.6586   58.2161 H       1  ZINC000643274279    0.0900
     42 H42       -10.3027   -0.4555   55.2531 H       1  ZINC000643274279    0.1300
     43 H43        -6.7368    4.2916   54.0439 H       1  ZINC000643274279    0.0800
     44 H44        -5.7311    2.8189   54.2008 H       1  ZINC000643274279    0.1000
     45 H45        -4.5764    5.1321   53.4058 H       1  ZINC000643274279    0.0900
     46 H46        -4.1328    3.6034   52.5747 H       1  ZINC000643274279    0.0800
     47 H47        -6.1543    5.7399   51.6913 H       1  ZINC000643274279    0.0800
     48 H48        -4.8946    4.9245   50.7077 H       1  ZINC000643274279    0.0900
     49 H49        -7.7518    3.2427   48.7640 H       1  ZINC000643274279    0.1200
     50 H50        -9.8530    4.1857   47.8954 H       1  ZINC000643274279    0.1300
     51 H51       -11.6565    5.5240   48.3090 H       1  ZINC000643274279    0.3900
     52 H52       -10.4062    6.3106   51.5620 H       1  ZINC000643274279    0.1300
     53 H53        -8.3066    5.3593   52.4251 H       1  ZINC000643274279    0.1300
@<TRIPOS>BOND
     1     1     2    2
     2     2     3   am
     3     2    16    1
     4     3     4    1
     5     3    31    1
     6     4    15   ar
     7     4     5   ar
     8     5     6   ar
     9     5    32    1
    10     6     7   ar
    11     6    33    1
    12     7    14   ar
    13     7     8    1
    14     8     9    1
    15     8    34    1
    16     8    35    1
    17     9    10    1
    18     9    36    1
    19     9    37    1
    20    10    11    1
    21    10    38    1
    22    10    39    1
    23    11    12    1
    24    11    40    1
    25    11    41    1
    26    12    13    2
    27    12    14    1
    28    14    15   ar
    29    15    42    1
    30    16    17    2
    31    16    18   am
    32    18    22    1
    33    18    19    1
    34    19    20    1
    35    19    43    1
    36    19    44    1
    37    20    21    1
    38    20    45    1
    39    20    46    1
    40    21    22    1
    41    21    47    1
    42    21    48    1
    43    22    23    1
    44    22    24    1
    45    24    30   ar
    46    24    25   ar
    47    25    26   ar
    48    25    49    1
    49    26    27   ar
    50    26    50    1
    51    27    28    1
    52    27    29   ar
    53    28    51    1
    54    29    30   ar
    55    29    52    1
    56    30    53    1
@<TRIPOS>SUBSTRUCTURE
     1 ZINC000643274279        1 TEMP              0 ****  ****    0 ROOT


##########                                Name:    ZINC000151991096
##########                DOCK_Rotatable_Bonds:                   8
##########                         Heavy_Atoms:                  27
##########                    Molecular_Weight:             364.444
##########                DOCK_Rotatable_Bonds:                   8
##########                       Formal_Charge:          -0.0200004
##########                     HBond_Acceptors:                   5
##########                        HBond_Donors:                   1
##########                         Heavy_Atoms:                  27
##########                          Grid_Score:          -31.011253
##########                     Grid_vdw_energy:          -29.528830
##########                      Grid_es_energy:           -1.482423
##########           Internal_energy_repulsive:           19.665863

@<TRIPOS>MOLECULE
ZINC000151991096
 51 53 1 0 0
SMALL
USER_CHARGES


@<TRIPOS>ATOM
      1 C1        -11.5959   -0.3912   52.0032 C.3     1  ZINC000151991096   -0.1500
      2 C2        -11.4928   -0.1627   53.5126 C.3     1  ZINC000151991096   -0.1300
      3 C3        -10.0481   -0.3847   53.9646 C.3     1  ZINC000151991096    0.1400
      4 H4         -9.7788   -1.4310   53.8202 H       1  ZINC000151991096    0.1000
      5 N5         -9.9215   -0.0391   55.3825 N.am    1  ZINC000151991096   -0.7200
      6 C6        -10.2438   -0.9437   56.3281 C.2     1  ZINC000151991096    0.5600
      7 O7        -10.6413   -2.0462   56.0042 O.2     1  ZINC000151991096   -0.5300
      8 C8        -10.1145   -0.5960   57.7568 C.ar    1  ZINC000151991096   -0.1700
      9 C9         -9.7058    0.6866   58.1313 C.ar    1  ZINC000151991096   -0.0500
     10 C10        -9.5869    1.0072   59.4652 C.ar    1  ZINC000151991096   -0.1600
     11 C11        -9.8726    0.0568   60.4385 C.ar    1  ZINC000151991096    0.1600
     12 O12        -9.7546    0.3767   61.7521 O.3     1  ZINC000151991096   -0.3000
     13 C13        -9.2122   -0.6231   62.6171 C.3     1  ZINC000151991096    0.0900
     14 C14        -8.8163    0.0074   63.9274 C.ar    1  ZINC000151991096   -0.0500
     15 C15        -7.5235   -0.1166   64.3915 C.ar    1  ZINC000151991096   -0.1000
     16 C16        -7.1584    0.4617   65.5945 C.ar    1  ZINC000151991096   -0.0900
     17 C17        -8.0860    1.1671   66.3400 C.ar    1  ZINC000151991096   -0.1200
     18 C18        -9.3828    1.2988   65.8877 C.ar    1  ZINC000151991096   -0.0700
     19 C19        -9.7564    0.7232   64.6719 C.ar    1  ZINC000151991096   -0.0200
     20 C20       -11.1006    0.8561   64.1961 C.1     1  ZINC000151991096    0.2400
     21 N21       -12.1668    0.9614   63.8188 N.1     1  ZINC000151991096   -0.4000
     22 C22       -10.2794   -1.2202   60.0699 C.ar    1  ZINC000151991096   -0.2200
     23 C23       -10.4059   -1.5470   58.7383 C.ar    1  ZINC000151991096   -0.0100
     24 C24        -9.1135    0.5011   53.1382 C.3     1  ZINC000151991096    0.0700
     25 H25        -9.1617    0.2112   52.0886 H       1  ZINC000151991096    0.1000
     26 C26        -7.6655    0.3596   53.6546 C.3     1  ZINC000151991096   -0.1500
     27 C27        -7.1368    1.8166   53.5568 C.3     1  ZINC000151991096   -0.1600
     28 C28        -8.4212    2.6182   53.8860 C.3     1  ZINC000151991096    0.0500
     29 O29        -9.4936    1.8747   53.2810 O.3     1  ZINC000151991096   -0.3700
     30 H30       -11.2947   -1.4123   51.7690 H       1  ZINC000151991096    0.0500
     31 H31       -12.6251   -0.2331   51.6813 H       1  ZINC000151991096    0.0500
     32 H32       -10.9412    0.3089   51.4842 H       1  ZINC000151991096    0.0600
     33 H33       -11.7940    0.8584   53.7469 H       1  ZINC000151991096    0.0700
     34 H34       -12.1475   -0.8628   54.0316 H       1  ZINC000151991096    0.0700
     35 H35        -9.6055    0.8409   55.6409 H       1  ZINC000151991096    0.4000
     36 H36        -9.4833    1.4254   57.3758 H       1  ZINC000151991096    0.1300
     37 H37        -9.2707    1.9982   59.7556 H       1  ZINC000151991096    0.1400
     38 H38        -9.9617   -1.3938   62.7965 H       1  ZINC000151991096    0.0800
     39 H39        -8.3351   -1.0709   62.1497 H       1  ZINC000151991096    0.0800
     40 H40        -6.7945   -0.6665   63.8148 H       1  ZINC000151991096    0.1400
     41 H41        -6.1446    0.3615   65.9532 H       1  ZINC000151991096    0.1400
     42 H42        -7.7945    1.6152   67.2785 H       1  ZINC000151991096    0.1400
     43 H43       -10.1061    1.8494   66.4709 H       1  ZINC000151991096    0.1400
     44 H44       -10.5002   -1.9559   60.8292 H       1  ZINC000151991096    0.1300
     45 H45       -10.7224   -2.5393   58.4527 H       1  ZINC000151991096    0.1400
     46 H46        -7.6542    0.0113   54.6874 H       1  ZINC000151991096    0.0800
     47 H47        -7.0882   -0.3064   53.0131 H       1  ZINC000151991096    0.0900
     48 H48        -6.3576    2.0022   54.2961 H       1  ZINC000151991096    0.0800
     49 H49        -6.7820    2.0391   52.5505 H       1  ZINC000151991096    0.0800
     50 H50        -8.5634    2.6786   54.9650 H       1  ZINC000151991096    0.0600
     51 H51        -8.3645    3.6176   53.4546 H       1  ZINC000151991096    0.0900
@<TRIPOS>BOND
     1     1     2    1
     2     1    30    1
     3     1    31    1
     4     1    32    1
     5     2     3    1
     6     2    33    1
     7     2    34    1
     8     3     4    1
     9     3     5    1
    10     3    24    1
    11     5     6   am
    12     5    35    1
    13     6     7    2
    14     6     8    1
    15     8    23   ar
    16     8     9   ar
    17     9    10   ar
    18     9    36    1
    19    10    11   ar
    20    10    37    1
    21    11    12    1
    22    11    22   ar
    23    12    13    1
    24    13    14    1
    25    13    38    1
    26    13    39    1
    27    14    19   ar
    28    14    15   ar
    29    15    16   ar
    30    15    40    1
    31    16    17   ar
    32    16    41    1
    33    17    18   ar
    34    17    42    1
    35    18    19   ar
    36    18    43    1
    37    19    20    1
    38    20    21    3
    39    22    23   ar
    40    22    44    1
    41    23    45    1
    42    24    25    1
    43    24    29    1
    44    24    26    1
    45    26    27    1
    46    26    46    1
    47    26    47    1
    48    27    28    1
    49    27    48    1
    50    27    49    1
    51    28    29    1
    52    28    50    1
    53    28    51    1
@<TRIPOS>SUBSTRUCTURE
     1 ZINC000151991096        1 TEMP              0 ****  ****    0 ROOT


##########                                Name:    ZINC000271662144
##########                DOCK_Rotatable_Bonds:                   8
##########                         Heavy_Atoms:                  26
##########                    Molecular_Weight:             390.402
##########                DOCK_Rotatable_Bonds:                   8
##########                       Formal_Charge:          0.00999944
##########                     HBond_Acceptors:                   9
##########                        HBond_Donors:                   3
##########                         Heavy_Atoms:                  26
##########                          Grid_Score:          -30.985802
##########                     Grid_vdw_energy:          -28.804665
##########                      Grid_es_energy:           -2.181137
##########           Internal_energy_repulsive:            9.200685

@<TRIPOS>MOLECULE
ZINC000271662144
 44 45 1 0 0
SMALL
USER_CHARGES


@<TRIPOS>ATOM
      1 C1         -8.5429   -0.8644   59.7427 C.3     1  ZINC000271662144   -0.1400
      2 C2         -9.7288   -0.6329   60.6812 C.3     1  ZINC000271662144    0.1200
      3 H3        -10.0041   -1.5737   61.1577 H       1  ZINC000271662144    0.0600
      4 N4        -10.8704   -0.1217   59.9108 N.3     1  ZINC000271662144   -0.6700
      5 C5        -12.1305   -0.3286   60.6371 C.3     1  ZINC000271662144    0.1300
      6 H6        -11.9189   -0.7558   61.6174 H       1  ZINC000271662144    0.1100
      7 C7        -12.8463    1.0126   60.8088 C.3     1  ZINC000271662144   -0.2000
      8 C8        -13.4755    1.0802   62.2019 C.3     1  ZINC000271662144    0.4600
      9 F9        -14.2027    2.2687   62.3279 F       1  ZINC000271662144   -0.1800
     10 F10       -14.3317   -0.0116   62.3804 F       1  ZINC000271662144   -0.1800
     11 F11       -12.4671    1.0455   63.1711 F       1  ZINC000271662144   -0.1700
     12 C12       -13.0104   -1.2715   59.8576 C.ar    1  ZINC000271662144   -0.0900
     13 C13       -13.6416   -2.3192   60.5019 C.ar    1  ZINC000271662144   -0.0600
     14 C14       -14.4488   -3.1845   59.7882 C.ar    1  ZINC000271662144   -0.1600
     15 C15       -14.6256   -3.0015   58.4271 C.ar    1  ZINC000271662144    0.1000
     16 F16       -15.4148   -3.8466   57.7284 F       1  ZINC000271662144   -0.1400
     17 C17       -13.9934   -1.9515   57.7829 C.ar    1  ZINC000271662144   -0.1500
     18 C18       -13.1905   -1.0847   58.4997 C.ar    1  ZINC000271662144   -0.0700
     19 C19        -9.3451    0.3717   61.7370 C.ar    1  ZINC000271662144   -0.1100
     20 C20        -9.1166    1.6890   61.3869 C.ar    1  ZINC000271662144   -0.0400
     21 C21        -8.7646    2.6106   62.3555 C.ar    1  ZINC000271662144   -0.1400
     22 C22        -8.6416    2.2147   63.6740 C.ar    1  ZINC000271662144   -0.0200
     23 C23        -8.8710    0.8971   64.0244 C.ar    1  ZINC000271662144   -0.6800
     24 S24        -8.7137    0.3922   65.7052 S.o2    1  ZINC000271662144    2.7000
     25 N25        -7.1199    0.0204   65.9581 N.am    1  ZINC000271662144   -1.2500
     26 O26        -8.9885    1.5401   66.4964 O.2     1  ZINC000271662144   -0.9600
     27 O27        -9.4343   -0.8264   65.8271 O.2     1  ZINC000271662144   -0.9600
     28 C28        -9.2271   -0.0233   63.0567 C.ar    1  ZINC000271662144   -0.0100
     29 H29        -8.8204   -1.5910   58.9790 H       1  ZINC000271662144    0.0600
     30 H30        -8.2676    0.0764   59.2660 H       1  ZINC000271662144    0.0700
     31 H31        -7.6957   -1.2437   60.3142 H       1  ZINC000271662144    0.0600
     32 H32       -10.7428    0.8518   59.6782 H       1  ZINC000271662144    0.3500
     33 H33       -12.1285    1.8249   60.6947 H       1  ZINC000271662144    0.1100
     34 H34       -13.6260    1.1078   60.0531 H       1  ZINC000271662144    0.1200
     35 H35       -13.5035   -2.4617   61.5636 H       1  ZINC000271662144    0.1300
     36 H36       -14.9411   -4.0032   60.2916 H       1  ZINC000271662144    0.1400
     37 H37       -14.1303   -1.8081   56.7213 H       1  ZINC000271662144    0.1400
     38 H38       -12.6976   -0.2655   57.9974 H       1  ZINC000271662144    0.1300
     39 H39        -9.2126    1.9985   60.3567 H       1  ZINC000271662144    0.1400
     40 H40        -8.5854    3.6400   62.0819 H       1  ZINC000271662144    0.1400
     41 H41        -8.3659    2.9345   64.4305 H       1  ZINC000271662144    0.1400
     42 H42        -6.6970   -0.6805   65.4377 H       1  ZINC000271662144    0.4200
     43 H43        -6.6093    0.5035   66.6264 H       1  ZINC000271662144    0.4200
     44 H44        -9.4064   -1.0526   63.3303 H       1  ZINC000271662144    0.1400
@<TRIPOS>BOND
     1     1     2    1
     2     1    29    1
     3     1    30    1
     4     1    31    1
     5     2     3    1
     6     2     4    1
     7     2    19    1
     8     4     5    1
     9     4    32    1
    10     5     6    1
    11     5     7    1
    12     5    12    1
    13     7     8    1
    14     7    33    1
    15     7    34    1
    16     8     9    1
    17     8    10    1
    18     8    11    1
    19    12    18   ar
    20    12    13   ar
    21    13    14   ar
    22    13    35    1
    23    14    15   ar
    24    14    36    1
    25    15    16    1
    26    15    17   ar
    27    17    18   ar
    28    17    37    1
    29    18    38    1
    30    19    28   ar
    31    19    20   ar
    32    20    21   ar
    33    20    39    1
    34    21    22   ar
    35    21    40    1
    36    22    23   ar
    37    22    41    1
    38    23    24    1
    39    23    28   ar
    40    24    25   am
    41    24    26    2
    42    24    27    2
    43    25    42    1
    44    25    43    1
    45    28    44    1
@<TRIPOS>SUBSTRUCTURE
     1 ZINC000271662144        1 TEMP              0 ****  ****    0 ROOT


##########                                Name:    ZINC000369046711
##########                DOCK_Rotatable_Bonds:                   8
##########                         Heavy_Atoms:                  26
##########                    Molecular_Weight:             367.467
##########                DOCK_Rotatable_Bonds:                   8
##########                       Formal_Charge:        -7.63685e-07
##########                     HBond_Acceptors:                   8
##########                        HBond_Donors:                   1
##########                         Heavy_Atoms:                  26
##########                          Grid_Score:          -30.985748
##########                     Grid_vdw_energy:          -31.438034
##########                      Grid_es_energy:            0.452287
##########           Internal_energy_repulsive:           16.414446

@<TRIPOS>MOLECULE
ZINC000369046711
 56 58 1 0 0
SMALL
USER_CHARGES


@<TRIPOS>ATOM
      1 C1         -9.8727    1.5765   52.1787 C.3     1  ZINC000369046711   -0.1800
      2 C2        -10.1051    0.2962   52.9834 C.3     1  ZINC000369046711    0.1400
      3 C3        -11.5310    0.2943   53.5382 C.3     1  ZINC000369046711   -0.1800
      4 C4         -9.9098   -0.9195   52.0752 C.3     1  ZINC000369046711   -0.1400
      5 O5         -9.1581    0.2365   54.0824 O.3     1  ZINC000369046711   -0.3700
      6 C6         -9.5065   -0.5062   55.1500 C.2     1  ZINC000369046711    0.6500
      7 O7         -9.7080   -1.6976   55.0216 O.2     1  ZINC000369046711   -0.5700
      8 N8         -9.6321    0.0719   56.3609 N.am    1  ZINC000369046711   -0.7100
      9 C9        -10.0096   -0.7366   57.5229 C.3     1  ZINC000369046711    0.1800
     10 H10        -9.7424   -1.7763   57.3341 H       1  ZINC000369046711    0.0900
     11 C11       -11.5209   -0.6397   57.7275 C.3     1  ZINC000369046711   -0.1300
     12 C12       -11.8711    0.8269   58.0052 C.3     1  ZINC000369046711   -0.1200
     13 C13       -11.2107    1.2400   59.3174 C.3     1  ZINC000369046711   -0.1200
     14 C14        -9.6867    1.1465   59.2188 C.3     1  ZINC000369046711   -0.1000
     15 H15        -9.2651    1.9532   58.6193 H       1  ZINC000369046711    0.0900
     16 C16        -9.1508    1.1520   60.6767 C.3     1  ZINC000369046711    0.0400
     17 N17        -9.0504   -0.2575   61.1031 N.3     1  ZINC000369046711   -0.5200
     18 C18        -9.8723   -0.5068   62.2948 C.3     1  ZINC000369046711    0.1200
     19 C19        -9.0926   -0.1348   63.5296 C.2     1  ZINC000369046711    0.2900
     20 N20        -7.8366   -0.4197   63.7600 N.2     1  ZINC000369046711   -0.5400
     21 C21        -7.4745    0.0622   64.9482 C.2     1  ZINC000369046711    0.2000
     22 N22        -8.4996    0.6633   65.4928 N.2     1  ZINC000369046711   -0.3200
     23 N23        -9.5645    0.5529   64.5839 N.pl3   1  ZINC000369046711   -0.3700
     24 C24       -10.9226    1.0749   64.7550 C.3     1  ZINC000369046711    0.1000
     25 C25       -10.9925    2.5029   64.2100 C.3     1  ZINC000369046711    0.0500
     26 F26       -10.1485    3.3298   64.9592 F       1  ZINC000369046711   -0.2000
     27 C27        -9.4728   -1.1226   59.9759 C.3     1  ZINC000369046711    0.0500
     28 C28        -9.2518   -0.2459   58.7302 C.3     1  ZINC000369046711   -0.1000
     29 H29        -8.1886   -0.2246   58.4909 H       1  ZINC000369046711    0.0900
     30 H30       -10.0119    2.4426   52.8257 H       1  ZINC000369046711    0.0900
     31 H31        -8.8569    1.5778   51.7834 H       1  ZINC000369046711    0.0600
     32 H32       -10.5836    1.6212   51.3538 H       1  ZINC000369046711    0.0700
     33 H33       -12.2419    0.3390   52.7133 H       1  ZINC000369046711    0.0700
     34 H34       -11.6966   -0.6179   54.1115 H       1  ZINC000369046711    0.0600
     35 H35       -11.6702    1.1603   54.1853 H       1  ZINC000369046711    0.0900
     36 H36        -8.8939   -0.9182   51.6799 H       1  ZINC000369046711    0.0700
     37 H37       -10.0754   -1.8317   52.6485 H       1  ZINC000369046711    0.0700
     38 H38       -10.6207   -0.8748   51.2503 H       1  ZINC000369046711    0.0800
     39 H39        -9.4724    1.0231   56.4632 H       1  ZINC000369046711    0.4000
     40 H40       -12.0365   -0.9774   56.8285 H       1  ZINC000369046711    0.0700
     41 H41       -11.8178   -1.2562   58.5761 H       1  ZINC000369046711    0.0800
     42 H42       -11.4992    1.4529   57.1942 H       1  ZINC000369046711    0.0600
     43 H43       -12.9524    0.9367   58.0881 H       1  ZINC000369046711    0.0700
     44 H44       -11.4918    2.2667   59.5518 H       1  ZINC000369046711    0.0700
     45 H45       -11.5586    0.5837   60.1151 H       1  ZINC000369046711    0.0600
     46 H46        -8.1679    1.6219   60.7103 H       1  ZINC000369046711    0.0800
     47 H47        -9.8428    1.6889   61.3257 H       1  ZINC000369046711    0.0800
     48 H48       -10.7795    0.0951   62.2429 H       1  ZINC000369046711    0.0800
     49 H49       -10.1388   -1.5628   62.3378 H       1  ZINC000369046711    0.1000
     50 H50        -6.4933   -0.0294   65.3901 H       1  ZINC000369046711    0.2200
     51 H51       -11.6256    0.4437   64.2113 H       1  ZINC000369046711    0.1200
     52 H52       -11.1802    1.0772   65.8140 H       1  ZINC000369046711    0.1100
     53 H53       -10.6757    2.5097   63.1671 H       1  ZINC000369046711    0.0900
     54 H54       -12.0166    2.8691   64.2811 H       1  ZINC000369046711    0.0800
     55 H55        -8.8534   -2.0183   59.9289 H       1  ZINC000369046711    0.0900
     56 H56       -10.5252   -1.3893   60.0726 H       1  ZINC000369046711    0.0600
@<TRIPOS>BOND
     1     1     2    1
     2     1    30    1
     3     1    31    1
     4     1    32    1
     5     2     3    1
     6     2     4    1
     7     2     5    1
     8     3    33    1
     9     3    34    1
    10     3    35    1
    11     4    36    1
    12     4    37    1
    13     4    38    1
    14     5     6    1
    15     6     7    2
    16     6     8   am
    17     8     9    1
    18     8    39    1
    19     9    10    1
    20     9    28    1
    21     9    11    1
    22    11    12    1
    23    11    40    1
    24    11    41    1
    25    12    13    1
    26    12    42    1
    27    12    43    1
    28    13    14    1
    29    13    44    1
    30    13    45    1
    31    14    15    1
    32    14    28    1
    33    14    16    1
    34    16    17    1
    35    16    46    1
    36    16    47    1
    37    17    18    1
    38    17    27    1
    39    18    19    1
    40    18    48    1
    41    18    49    1
    42    19    23    1
    43    19    20    2
    44    20    21    1
    45    21    22    2
    46    21    50    1
    47    22    23    1
    48    23    24    1
    49    24    25    1
    50    24    51    1
    51    24    52    1
    52    25    26    1
    53    25    53    1
    54    25    54    1
    55    27    28    1
    56    27    55    1
    57    27    56    1
    58    28    29    1
@<TRIPOS>SUBSTRUCTURE
     1 ZINC000369046711        1 TEMP              0 ****  ****    0 ROOT


##########                                Name:    ZINC000033150761
##########                DOCK_Rotatable_Bonds:                   7
##########                         Heavy_Atoms:                  29
##########                    Molecular_Weight:             413.407
##########                DOCK_Rotatable_Bonds:                   7
##########                       Formal_Charge:          0.00999993
##########                     HBond_Acceptors:                  10
##########                        HBond_Donors:                   1
##########                         Heavy_Atoms:                  29
##########                          Grid_Score:          -30.984423
##########                     Grid_vdw_energy:          -30.047064
##########                      Grid_es_energy:           -0.937359
##########           Internal_energy_repulsive:            3.608739

@<TRIPOS>MOLECULE
ZINC000033150761
 42 45 1 0 0
SMALL
USER_CHARGES


@<TRIPOS>ATOM
      1 O1         -9.2452    2.5811   58.2612 O.2     1  ZINC000033150761   -0.5000
      2 C2         -8.4617    1.9266   57.6064 C.2     1  ZINC000033150761    0.5200
      3 C3         -7.8908    2.4902   56.3306 C.3     1  ZINC000033150761   -0.1300
      4 C4         -8.7054    1.9821   55.1392 C.3     1  ZINC000033150761   -0.0100
      5 C5         -8.1993    2.6254   53.8738 C.2     1  ZINC000033150761    0.1800
      6 N6         -8.9094    2.9220   52.8141 N.2     1  ZINC000033150761   -0.4400
      7 C7         -8.0413    3.4775   51.9390 C.2     1  ZINC000033150761    0.2200
      8 C8         -8.3619    3.9840   50.5806 C.ar    1  ZINC000033150761    0.1900
      9 C9         -7.3952    4.6754   49.8558 C.ar    1  ZINC000033150761   -0.1300
     10 C10        -7.7087    5.1420   48.5899 C.ar    1  ZINC000033150761   -0.0700
     11 C11        -8.9804    4.9007   48.0919 C.ar    1  ZINC000033150761   -0.1500
     12 C12        -9.8920    4.2063   48.8674 C.ar    1  ZINC000033150761    0.1100
     13 N13        -9.5654    3.7692   50.0659 N.ar    1  ZINC000033150761   -0.4500
     14 N14        -6.8667    3.4855   52.5128 N.2     1  ZINC000033150761   -0.3600
     15 O15        -6.9424    3.0057   53.6242 O.3     1  ZINC000033150761    0.0900
     16 N16        -8.0973    0.6976   58.0225 N.am    1  ZINC000033150761   -0.6200
     17 C17        -8.6237    0.1779   59.1988 C.2     1  ZINC000033150761    0.2700
     18 N18        -8.4834    0.7000   60.3773 N.2     1  ZINC000033150761   -0.5000
     19 C19        -9.0571    0.0644   61.3893 C.2     1  ZINC000033150761    0.1200
     20 C20        -8.9718    0.5574   62.7858 C.ar    1  ZINC000033150761    0.0000
     21 C21        -9.8309    1.5627   63.2254 C.ar    1  ZINC000033150761   -0.0800
     22 C22        -9.7492    2.0189   64.5256 C.ar    1  ZINC000033150761   -0.1200
     23 C23        -8.8155    1.4796   65.3940 C.ar    1  ZINC000033150761    0.0700
     24 F24        -8.7394    1.9293   66.6656 F       1  ZINC000033150761   -0.1300
     25 C25        -7.9577    0.4778   64.9618 C.ar    1  ZINC000033150761    0.0700
     26 F26        -7.0485   -0.0458   65.8129 F       1  ZINC000033150761   -0.1300
     27 C27        -8.0362    0.0122   63.6635 C.ar    1  ZINC000033150761   -0.1000
     28 C28        -9.7220   -1.0581   61.0626 C.2     1  ZINC000033150761   -0.2800
     29 S29        -9.5916   -1.2882   59.3204 S.3     1  ZINC000033150761    0.2200
     30 H30        -7.9345    3.5789   56.3628 H       1  ZINC000033150761    0.1200
     31 H31        -6.8540    2.1712   56.2244 H       1  ZINC000033150761    0.1200
     32 H32        -8.6016    0.8997   55.0633 H       1  ZINC000033150761    0.1300
     33 H33        -9.7554    2.2373   55.2818 H       1  ZINC000033150761    0.1200
     34 H34        -6.4145    4.8459   50.2749 H       1  ZINC000033150761    0.1400
     35 H35        -6.9796    5.6819   48.0041 H       1  ZINC000033150761    0.1500
     36 H36        -9.2566    5.2515   47.1085 H       1  ZINC000033150761    0.1400
     37 H37       -10.8832    4.0165   48.4830 H       1  ZINC000033150761    0.1700
     38 H38        -7.4676    0.1758   57.5007 H       1  ZINC000033150761    0.4300
     39 H39       -10.5595    1.9849   62.5493 H       1  ZINC000033150761    0.1400
     40 H40       -10.4147    2.7984   64.8661 H       1  ZINC000033150761    0.1500
     41 H41        -7.3688   -0.7674   63.3270 H       1  ZINC000033150761    0.1600
     42 H42       -10.2488   -1.7045   61.7490 H       1  ZINC000033150761    0.1800
@<TRIPOS>BOND
     1     1     2    2
     2     2     3    1
     3     2    16   am
     4     3     4    1
     5     3    30    1
     6     3    31    1
     7     4     5    1
     8     4    32    1
     9     4    33    1
    10     5    15    1
    11     5     6    2
    12     6     7    1
    13     7     8    1
    14     7    14    2
    15     8    13   ar
    16     8     9   ar
    17     9    10   ar
    18     9    34    1
    19    10    11   ar
    20    10    35    1
    21    11    12   ar
    22    11    36    1
    23    12    13   ar
    24    12    37    1
    25    14    15    1
    26    16    17    1
    27    16    38    1
    28    17    29    1
    29    17    18    2
    30    18    19    1
    31    19    20    1
    32    19    28    2
    33    20    27   ar
    34    20    21   ar
    35    21    22   ar
    36    21    39    1
    37    22    23   ar
    38    22    40    1
    39    23    24    1
    40    23    25   ar
    41    25    26    1
    42    25    27   ar
    43    27    41    1
    44    28    29    1
    45    28    42    1
@<TRIPOS>SUBSTRUCTURE
     1 ZINC000033150761        1 TEMP              0 ****  ****    0 ROOT


##########                                Name:    ZINC000746432885
##########                DOCK_Rotatable_Bonds:                  11
##########                         Heavy_Atoms:                  31
##########                    Molecular_Weight:              419.44
##########                DOCK_Rotatable_Bonds:                  11
##########                       Formal_Charge:           0.0199995
##########                     HBond_Acceptors:                   9
##########                        HBond_Donors:                   2
##########                         Heavy_Atoms:                  31
##########                          Grid_Score:          -30.973738
##########                     Grid_vdw_energy:          -32.261456
##########                      Grid_es_energy:            1.287717
##########           Internal_energy_repulsive:           39.341827

@<TRIPOS>MOLECULE
ZINC000746432885
 52 54 1 0 0
SMALL
USER_CHARGES


@<TRIPOS>ATOM
      1 C1        -13.9637   -3.7368   57.5637 C.3     1  ZINC000746432885    0.0300
      2 O2        -12.5724   -3.4529   57.7245 O.3     1  ZINC000746432885   -0.3200
      3 C3        -12.2436   -2.4320   58.5592 C.ar    1  ZINC000746432885    0.1300
      4 C4        -13.2327   -1.7746   59.2762 C.ar    1  ZINC000746432885   -0.2000
      5 C5        -12.8958   -0.7372   60.1238 C.ar    1  ZINC000746432885   -0.0800
      6 C6        -11.5742   -0.3536   60.2577 C.ar    1  ZINC000746432885   -0.1400
      7 C7        -10.5866   -1.0072   59.5442 C.ar    1  ZINC000746432885   -0.0600
      8 C8         -9.1470   -0.5868   59.6927 C.3     1  ZINC000746432885    0.2300
      9 N9         -8.6594   -0.0554   58.4175 N.am    1  ZINC000746432885   -0.6900
     10 C10        -9.4398    0.7656   57.6871 C.2     1  ZINC000746432885    0.5200
     11 O11       -10.5460    1.0657   58.0864 O.2     1  ZINC000746432885   -0.5100
     12 C12        -8.9436    1.3058   56.3865 C.2     1  ZINC000746432885    0.5100
     13 O13        -9.7334    1.6699   55.5394 O.2     1  ZINC000746432885   -0.5100
     14 N14        -7.6188    1.3894   56.1529 N.am    1  ZINC000746432885   -0.6100
     15 C15        -7.1519    1.8992   54.9300 C.2     1  ZINC000746432885    0.0000
     16 C16        -6.4624    3.0567   54.7559 C.2     1  ZINC000746432885    0.0400
     17 N17        -6.2010    3.1834   53.4352 N.pl3   1  ZINC000746432885   -0.3800
     18 C18        -5.4758    4.2883   52.8033 C.3     1  ZINC000746432885    0.2500
     19 C19        -4.0352    3.9861   52.7905 C.1     1  ZINC000746432885    0.1900
     20 N20        -2.9234    3.7529   52.7806 N.1     1  ZINC000746432885   -0.3900
     21 N21        -6.7449    2.0728   52.7776 N.2     1  ZINC000746432885   -0.2800
     22 C22        -7.3091    1.3007   53.6703 C.2     1  ZINC000746432885    0.0700
     23 C23        -9.0416    0.4781   60.7539 C.ar    1  ZINC000746432885   -0.0500
     24 C24        -8.7155    1.7746   60.4014 C.ar    1  ZINC000746432885   -0.1500
     25 C25        -8.6185    2.7539   61.3726 C.ar    1  ZINC000746432885   -0.0700
     26 C26        -8.8473    2.4390   62.6980 C.ar    1  ZINC000746432885   -0.2000
     27 C27        -9.1745    1.1388   63.0543 C.ar    1  ZINC000746432885    0.1300
     28 O28        -9.4000    0.8264   64.3576 O.3     1  ZINC000746432885   -0.3200
     29 C29        -8.4810   -0.0758   64.9768 C.3     1  ZINC000746432885    0.0300
     30 C30        -9.2764    0.1591   62.0773 C.ar    1  ZINC000746432885   -0.1300
     31 C31       -10.9176   -2.0493   58.6999 C.ar    1  ZINC000746432885   -0.1300
     32 H32       -14.4702   -2.8579   57.1650 H       1  ZINC000746432885    0.0600
     33 H33       -14.0868   -4.5714   56.8734 H       1  ZINC000746432885    0.1000
     34 H34       -14.3954   -3.9978   58.5300 H       1  ZINC000746432885    0.0600
     35 H35       -14.2652   -2.0734   59.1715 H       1  ZINC000746432885    0.1300
     36 H36       -13.6654   -0.2251   60.6824 H       1  ZINC000746432885    0.1300
     37 H37       -11.3129    0.4582   60.9203 H       1  ZINC000746432885    0.1200
     38 H38        -8.5448   -1.4483   59.9814 H       1  ZINC000746432885    0.1200
     39 H39        -7.7749   -0.2942   58.0988 H       1  ZINC000746432885    0.4200
     40 H40        -6.9878    1.0973   56.8292 H       1  ZINC000746432885    0.4200
     41 H41        -6.1751    3.7505   55.5322 H       1  ZINC000746432885    0.1900
     42 H42        -5.8290    4.4168   51.7801 H       1  ZINC000746432885    0.1300
     43 H43        -5.6495    5.2058   53.3655 H       1  ZINC000746432885    0.1500
     44 H44        -7.8145    0.3673   53.4714 H       1  ZINC000746432885    0.2100
     45 H45        -8.5359    2.0228   59.3657 H       1  ZINC000746432885    0.1200
     46 H46        -8.3633    3.7660   61.0947 H       1  ZINC000746432885    0.1300
     47 H47        -8.7710    3.2043   63.4563 H       1  ZINC000746432885    0.1300
     48 H48        -8.7754   -0.2397   66.0134 H       1  ZINC000746432885    0.1000
     49 H49        -8.4885   -1.0257   64.4424 H       1  ZINC000746432885    0.0600
     50 H50        -7.4780    0.3500   64.9469 H       1  ZINC000746432885    0.0600
     51 H51        -9.5311   -0.8538   62.3521 H       1  ZINC000746432885    0.1400
     52 H52       -10.1458   -2.5595   58.1427 H       1  ZINC000746432885    0.1300
@<TRIPOS>BOND
     1     1     2    1
     2     1    32    1
     3     1    33    1
     4     1    34    1
     5     2     3    1
     6     3    31   ar
     7     3     4   ar
     8     4     5   ar
     9     4    35    1
    10     5     6   ar
    11     5    36    1
    12     6     7   ar
    13     6    37    1
    14     7     8    1
    15     7    31   ar
    16     8     9    1
    17     8    23    1
    18     8    38    1
    19     9    10   am
    20     9    39    1
    21    10    11    2
    22    10    12    1
    23    12    13    2
    24    12    14   am
    25    14    15    1
    26    14    40    1
    27    15    22    1
    28    15    16    2
    29    16    17    1
    30    16    41    1
    31    17    18    1
    32    17    21    1
    33    18    19    1
    34    18    42    1
    35    18    43    1
    36    19    20    3
    37    21    22    2
    38    22    44    1
    39    23    30   ar
    40    23    24   ar
    41    24    25   ar
    42    24    45    1
    43    25    26   ar
    44    25    46    1
    45    26    27   ar
    46    26    47    1
    47    27    28    1
    48    27    30   ar
    49    28    29    1
    50    29    48    1
    51    29    49    1
    52    29    50    1
    53    30    51    1
    54    31    52    1
@<TRIPOS>SUBSTRUCTURE
     1 ZINC000746432885        1 TEMP              0 ****  ****    0 ROOT


##########                                Name:    ZINC000533131987
##########                DOCK_Rotatable_Bonds:                  11
##########                         Heavy_Atoms:                  30
##########                    Molecular_Weight:             419.403
##########                DOCK_Rotatable_Bonds:                  11
##########                       Formal_Charge:                0.01
##########                     HBond_Acceptors:                   9
##########                        HBond_Donors:                   3
##########                         Heavy_Atoms:                  30
##########                          Grid_Score:          -30.969503
##########                     Grid_vdw_energy:          -28.873079
##########                      Grid_es_energy:           -2.096425
##########           Internal_energy_repulsive:           24.635660

@<TRIPOS>MOLECULE
ZINC000533131987
 50 52 1 0 0
SMALL
USER_CHARGES


@<TRIPOS>ATOM
      1 O1         -7.9423    3.7504   54.7845 O.2     1  ZINC000533131987   -0.5700
      2 C2         -7.4878    2.6236   54.8286 C.2     1  ZINC000533131987    0.7100
      3 N3         -7.9115    1.7625   55.7749 N.am    1  ZINC000533131987   -0.7400
      4 C4         -8.9155    2.1860   56.7540 C.3     1  ZINC000533131987    0.1400
      5 C5         -9.1453    1.0630   57.7673 C.3     1  ZINC000533131987   -0.0900
      6 H6         -8.7785    0.1223   57.3564 H       1  ZINC000533131987    0.0900
      7 C7         -8.3938    1.3819   59.0612 C.3     1  ZINC000533131987    0.0800
      8 O8         -8.1514    0.1719   59.7819 O.3     1  ZINC000533131987   -0.5600
      9 C9        -10.6415    0.9413   58.0632 C.3     1  ZINC000533131987   -0.0900
     10 C10       -11.0668   -0.4972   57.9185 C.ar    1  ZINC000533131987    0.0000
     11 C11       -10.7137   -1.2120   56.7894 C.ar    1  ZINC000533131987   -0.1100
     12 C12       -11.1039   -2.5317   56.6567 C.ar    1  ZINC000533131987   -0.0800
     13 C13       -11.8466   -3.1363   57.6531 C.ar    1  ZINC000533131987   -0.1300
     14 C14       -12.1993   -2.4216   58.7829 C.ar    1  ZINC000533131987   -0.0700
     15 C15       -11.8055   -1.1035   58.9176 C.ar    1  ZINC000533131987   -0.1700
     16 C16       -12.1897   -0.3245   60.1490 C.3     1  ZINC000533131987    0.5100
     17 F17       -12.8775    0.8340   59.7723 F       1  ZINC000533131987   -0.1800
     18 F18       -13.0126   -1.1121   60.9613 F       1  ZINC000533131987   -0.1700
     19 F19       -11.0355    0.0278   60.8569 F       1  ZINC000533131987   -0.1800
     20 N20        -6.5641    2.2339   53.9278 N.am    1  ZINC000533131987   -0.6900
     21 C21        -6.1240    3.1282   52.9451 C.ar    1  ZINC000533131987    0.1600
     22 C22        -4.8887    3.7508   53.0755 C.ar    1  ZINC000533131987   -0.1000
     23 C23        -4.4494    4.6349   52.1076 C.ar    1  ZINC000533131987   -0.1000
     24 C24        -5.2347    4.9048   51.0056 C.ar    1  ZINC000533131987   -0.1000
     25 C25        -6.4776    4.2843   50.8655 C.ar    1  ZINC000533131987    0.0000
     26 C26        -7.3210    4.5713   49.6856 C.2     1  ZINC000533131987    0.2300
     27 N27        -7.3579    5.7063   49.0280 N.2     1  ZINC000533131987   -0.4700
     28 C28        -8.2367    5.5902   48.0211 C.2     1  ZINC000533131987   -0.0400
     29 C29        -8.7520    4.3480   48.0649 C.2     1  ZINC000533131987   -0.0700
     30 O30        -8.1744    3.7115   49.1029 O.3     1  ZINC000533131987   -0.2000
     31 C31        -6.9181    3.3883   51.8389 C.ar    1  ZINC000533131987   -0.1000
     32 H32        -7.5516    0.8623   55.8076 H       1  ZINC000533131987    0.4000
     33 H33        -8.5632    3.0773   57.2732 H       1  ZINC000533131987    0.0700
     34 H34        -9.8511    2.4101   56.2415 H       1  ZINC000533131987    0.0800
     35 H35        -7.4433    1.8585   58.8213 H       1  ZINC000533131987    0.0400
     36 H36        -8.9937    2.0553   59.6733 H       1  ZINC000533131987    0.0600
     37 H37        -7.8843    0.3084   60.7012 H       1  ZINC000533131987    0.3800
     38 H38       -10.8391    1.2779   59.0809 H       1  ZINC000533131987    0.0800
     39 H39       -11.2021    1.5584   57.3610 H       1  ZINC000533131987    0.0900
     40 H40       -10.1332   -0.7395   56.0108 H       1  ZINC000533131987    0.1300
     41 H41       -10.8285   -3.0900   55.7741 H       1  ZINC000533131987    0.1300
     42 H42       -12.1522   -4.1670   57.5491 H       1  ZINC000533131987    0.1300
     43 H43       -12.7799   -2.8939   59.5613 H       1  ZINC000533131987    0.1300
     44 H44        -6.2043    1.3337   53.9605 H       1  ZINC000533131987    0.4100
     45 H45        -4.2697    3.5437   53.9359 H       1  ZINC000533131987    0.1500
     46 H46        -3.4885    5.1161   52.2144 H       1  ZINC000533131987    0.1400
     47 H47        -4.8883    5.5963   50.2519 H       1  ZINC000533131987    0.1300
     48 H48        -8.4864    6.3574   47.3032 H       1  ZINC000533131987    0.1900
     49 H49        -9.4886    3.9362   47.3909 H       1  ZINC000533131987    0.2200
     50 H50        -7.8785    2.9053   51.7359 H       1  ZINC000533131987    0.1400
@<TRIPOS>BOND
     1     1     2    2
     2     2     3   am
     3     2    20   am
     4     3     4    1
     5     3    32    1
     6     4     5    1
     7     4    33    1
     8     4    34    1
     9     5     6    1
    10     5     7    1
    11     5     9    1
    12     7     8    1
    13     7    35    1
    14     7    36    1
    15     8    37    1
    16     9    10    1
    17     9    38    1
    18     9    39    1
    19    10    15   ar
    20    10    11   ar
    21    11    12   ar
    22    11    40    1
    23    12    13   ar
    24    12    41    1
    25    13    14   ar
    26    13    42    1
    27    14    15   ar
    28    14    43    1
    29    15    16    1
    30    16    17    1
    31    16    18    1
    32    16    19    1
    33    20    21    1
    34    20    44    1
    35    21    31   ar
    36    21    22   ar
    37    22    23   ar
    38    22    45    1
    39    23    24   ar
    40    23    46    1
    41    24    25   ar
    42    24    47    1
    43    25    26    1
    44    25    31   ar
    45    26    30    1
    46    26    27    2
    47    27    28    1
    48    28    29    2
    49    28    48    1
    50    29    30    1
    51    29    49    1
    52    31    50    1
@<TRIPOS>SUBSTRUCTURE
     1 ZINC000533131987        1 TEMP              0 ****  ****    0 ROOT


##########                                Name:    ZINC000654672208
##########                DOCK_Rotatable_Bonds:                   5
##########                         Heavy_Atoms:                  25
##########                    Molecular_Weight:             365.497
##########                DOCK_Rotatable_Bonds:                   5
##########                       Formal_Charge:           0.0100001
##########                     HBond_Acceptors:                   7
##########                        HBond_Donors:                   1
##########                         Heavy_Atoms:                  25
##########                          Grid_Score:          -30.957079
##########                     Grid_vdw_energy:          -29.686604
##########                      Grid_es_energy:           -1.270476
##########           Internal_energy_repulsive:           12.250101

@<TRIPOS>MOLECULE
ZINC000654672208
 52 54 1 0 0
SMALL
USER_CHARGES


@<TRIPOS>ATOM
      1 C1         -7.7579    0.3612   66.5855 C.3     1  ZINC000654672208   -0.1100
      2 C2         -8.4384    0.4382   65.2431 C.ar    1  ZINC000654672208   -0.1300
      3 C3         -7.7233    0.2140   64.0822 C.ar    1  ZINC000654672208    0.1000
      4 N4         -8.3120    0.2792   62.9039 N.ar    1  ZINC000654672208   -0.4700
      5 C5         -9.5952    0.5581   62.7845 C.ar    1  ZINC000654672208    0.1200
      6 C6        -10.2193    0.6204   61.4142 C.3     1  ZINC000654672208   -0.0900
      7 C7         -9.2523    0.0299   60.3860 C.3     1  ZINC000654672208    0.1500
      8 N8         -9.9311   -0.0974   59.0940 N.am    1  ZINC000654672208   -0.7500
      9 C9        -10.6128   -1.2219   58.7988 C.2     1  ZINC000654672208    0.7100
     10 O10       -10.6643   -2.1309   59.6047 O.2     1  ZINC000654672208   -0.5800
     11 N11       -11.2372   -1.3390   57.6102 N.am    1  ZINC000654672208   -0.6300
     12 C12       -11.1836   -0.2490   56.6265 C.3     1  ZINC000654672208    0.1300
     13 C13       -12.6142    0.1165   56.2188 C.3     1  ZINC000654672208   -0.1400
     14 C14       -13.3372   -1.1387   55.7265 C.3     1  ZINC000654672208   -0.1100
     15 C15       -13.4094   -2.1661   56.8625 C.3     1  ZINC000654672208   -0.0600
     16 C16       -14.1469   -3.4136   56.3651 C.3     1  ZINC000654672208   -0.1200
     17 C17       -14.8595   -4.0830   57.5683 C.3     1  ZINC000654672208   -0.5800
     18 S18       -15.5375   -2.6144   58.4417 S.o2    1  ZINC000654672208    2.3800
     19 O19       -16.6909   -2.1434   57.7584 O.2     1  ZINC000654672208   -0.9300
     20 O20       -15.5929   -2.8734   59.8378 O.2     1  ZINC000654672208   -0.9300
     21 C21       -14.1138   -1.5232   58.0696 C.3     1  ZINC000654672208   -0.5800
     22 C22       -11.9788   -2.5610   57.2723 C.3     1  ZINC000654672208    0.1200
     23 C23       -10.3745    0.7936   63.9015 C.ar    1  ZINC000654672208   -0.1200
     24 C24       -11.8404    1.1112   63.7559 C.3     1  ZINC000654672208   -0.1200
     25 C25        -9.7916    0.7291   65.1576 C.ar    1  ZINC000654672208   -0.0800
     26 H26        -7.8127   -0.6600   66.9628 H       1  ZINC000654672208    0.0700
     27 H27        -6.7132    0.6542   66.4806 H       1  ZINC000654672208    0.0700
     28 H28        -8.2555    1.0338   67.2842 H       1  ZINC000654672208    0.0700
     29 H29        -6.6698   -0.0168   64.1405 H       1  ZINC000654672208    0.1600
     30 H30       -11.1470    0.0479   61.4112 H       1  ZINC000654672208    0.0900
     31 H31       -10.4321    1.6583   61.1586 H       1  ZINC000654672208    0.0900
     32 H32        -8.3891    0.6869   60.2799 H       1  ZINC000654672208    0.0700
     33 H33        -8.9216   -0.9533   60.7210 H       1  ZINC000654672208    0.0700
     34 H34        -9.8899    0.6277   58.4511 H       1  ZINC000654672208    0.3900
     35 H35       -10.6964    0.6195   57.0696 H       1  ZINC000654672208    0.1000
     36 H36       -10.6256   -0.5758   55.7490 H       1  ZINC000654672208    0.0700
     37 H37       -13.1436    0.5277   57.0783 H       1  ZINC000654672208    0.0700
     38 H38       -12.5867    0.8574   55.4197 H       1  ZINC000654672208    0.0800
     39 H39       -14.3465   -0.8760   55.4096 H       1  ZINC000654672208    0.0800
     40 H40       -12.7918   -1.5656   54.8848 H       1  ZINC000654672208    0.0800
     41 H41       -14.8843   -3.1286   55.6147 H       1  ZINC000654672208    0.1000
     42 H42       -13.4328   -4.1113   55.9276 H       1  ZINC000654672208    0.1000
     43 H43       -15.6590   -4.7434   57.2326 H       1  ZINC000654672208    0.1400
     44 H44       -14.1482   -4.6192   58.1965 H       1  ZINC000654672208    0.1400
     45 H45       -13.4372   -1.4815   58.9230 H       1  ZINC000654672208    0.1400
     46 H46       -14.4622   -0.5225   57.8141 H       1  ZINC000654672208    0.1400
     47 H47       -11.4902   -3.0749   56.4445 H       1  ZINC000654672208    0.0800
     48 H48       -12.0155   -3.2170   58.1420 H       1  ZINC000654672208    0.0800
     49 H49       -12.4165    0.1861   63.7767 H       1  ZINC000654672208    0.0800
     50 H50       -12.1561    1.7544   64.5774 H       1  ZINC000654672208    0.0700
     51 H51       -12.0090    1.6230   62.8084 H       1  ZINC000654672208    0.0700
     52 H52       -10.3759    0.9085   66.0480 H       1  ZINC000654672208    0.1300
@<TRIPOS>BOND
     1     1     2    1
     2     1    26    1
     3     1    27    1
     4     1    28    1
     5     2    25   ar
     6     2     3   ar
     7     3     4   ar
     8     3    29    1
     9     4     5   ar
    10     5     6    1
    11     5    23   ar
    12     6     7    1
    13     6    30    1
    14     6    31    1
    15     7     8    1
    16     7    32    1
    17     7    33    1
    18     8     9   am
    19     8    34    1
    20     9    10    2
    21     9    11   am
    22    11    22    1
    23    11    12    1
    24    12    13    1
    25    12    35    1
    26    12    36    1
    27    13    14    1
    28    13    37    1
    29    13    38    1
    30    14    15    1
    31    14    39    1
    32    14    40    1
    33    15    21    1
    34    15    16    1
    35    15    22    1
    36    16    17    1
    37    16    41    1
    38    16    42    1
    39    17    18    1
    40    17    43    1
    41    17    44    1
    42    18    19    2
    43    18    20    2
    44    18    21    1
    45    21    45    1
    46    21    46    1
    47    22    47    1
    48    22    48    1
    49    23    24    1
    50    23    25   ar
    51    24    49    1
    52    24    50    1
    53    24    51    1
    54    25    52    1
@<TRIPOS>SUBSTRUCTURE
     1 ZINC000654672208        1 TEMP              0 ****  ****    0 ROOT


##########                                Name:    ZINC001090961577
##########                DOCK_Rotatable_Bonds:                   9
##########                         Heavy_Atoms:                  24
##########                    Molecular_Weight:             352.458
##########                DOCK_Rotatable_Bonds:                   9
##########                       Formal_Charge:                0.02
##########                     HBond_Acceptors:                   8
##########                        HBond_Donors:                   1
##########                         Heavy_Atoms:                  24
##########                          Grid_Score:          -30.950888
##########                     Grid_vdw_energy:          -28.667549
##########                      Grid_es_energy:           -2.283339
##########           Internal_energy_repulsive:            9.164443

@<TRIPOS>MOLECULE
ZINC001090961577
 48 49 1 0 0
SMALL
USER_CHARGES


@<TRIPOS>ATOM
      1 C1         -7.0256    2.8159   51.8966 C.3     1  ZINC001090961577   -0.1400
      2 C2         -7.3637    1.7860   52.9765 C.3     1  ZINC001090961577   -0.0900
      3 S3         -8.8635    2.3026   53.8563 S.3     1  ZINC001090961577   -0.2700
      4 C4         -9.0981    0.9794   55.0747 C.3     1  ZINC001090961577   -0.0700
      5 C5        -10.3446    1.2723   55.9121 C.3     1  ZINC001090961577   -0.1200
      6 C6        -10.5398    0.1727   56.9240 C.2     1  ZINC001090961577    0.5400
      7 O7        -11.2062   -0.8004   56.6410 O.2     1  ZINC001090961577   -0.5300
      8 N8         -9.9741    0.2707   58.1433 N.am    1  ZINC001090961577   -0.6200
      9 C9         -9.1461    1.3898   58.6164 C.3     1  ZINC001090961577    0.1100
     10 C10        -8.7454    1.0791   60.0739 C.3     1  ZINC001090961577   -0.1100
     11 H11        -7.7576    0.6198   60.1127 H       1  ZINC001090961577    0.0900
     12 C12        -8.7842    2.3478   60.9282 C.3     1  ZINC001090961577   -0.1400
     13 C13        -9.8364    0.0736   60.5275 C.3     1  ZINC001090961577    0.1500
     14 H14       -10.7403    0.5942   60.8440 H       1  ZINC001090961577    0.1200
     15 N15        -9.3362   -0.7989   61.5928 N.pl3   1  ZINC001090961577   -0.6700
     16 C16        -9.0985   -0.2852   62.8503 C.ar    1  ZINC001090961577    0.5900
     17 N17        -7.8666   -0.3277   63.3410 N.ar    1  ZINC001090961577   -0.5700
     18 C18        -7.5977    0.1532   64.5400 C.ar    1  ZINC001090961577    0.2700
     19 C19        -8.6363    0.7139   65.2958 C.ar    1  ZINC001090961577   -0.3000
     20 C20        -8.3821    1.2635   66.6400 C.2     1  ZINC001090961577    0.5300
     21 O21        -8.3462    0.5227   67.6024 O.2     1  ZINC001090961577   -0.5100
     22 O22        -8.1896    2.5873   66.8013 O.3     1  ZINC001090961577   -0.3600
     23 C23        -8.6310    3.4538   65.7230 C.3     1  ZINC001090961577    0.0400
     24 C24        -9.9228    0.7388   64.7402 C.ar    1  ZINC001090961577    0.2600
     25 N25       -10.1075    0.2419   63.5319 N.ar    1  ZINC001090961577   -0.5700
     26 C26       -10.0884   -0.7235   59.2259 C.3     1  ZINC001090961577    0.0900
     27 H27        -6.1243    2.5055   51.3679 H       1  ZINC001090961577    0.0700
     28 H28        -7.8537    2.8883   51.1917 H       1  ZINC001090961577    0.0700
     29 H29        -6.8578    3.7876   52.3611 H       1  ZINC001090961577    0.0700
     30 H30        -7.5315    0.8143   52.5119 H       1  ZINC001090961577    0.0800
     31 H31        -6.5355    1.7136   53.6815 H       1  ZINC001090961577    0.0800
     32 H32        -9.2228    0.0277   54.5581 H       1  ZINC001090961577    0.0900
     33 H33        -8.2262    0.9272   55.7269 H       1  ZINC001090961577    0.0900
     34 H34       -10.2197    2.2238   56.4291 H       1  ZINC001090961577    0.1000
     35 H35       -11.2164    1.3250   55.2600 H       1  ZINC001090961577    0.1000
     36 H36        -8.2535    1.4781   57.9972 H       1  ZINC001090961577    0.0800
     37 H37        -9.7190    2.3164   58.5789 H       1  ZINC001090961577    0.0800
     38 H38        -9.7868    2.7743   60.9000 H       1  ZINC001090961577    0.0600
     39 H39        -8.5232    2.1009   61.9574 H       1  ZINC001090961577    0.0600
     40 H40        -8.0700    3.0718   60.5359 H       1  ZINC001090961577    0.0700
     41 H41        -9.1723   -1.7381   61.4135 H       1  ZINC001090961577    0.4200
     42 H42        -6.5925    0.1148   64.9331 H       1  ZINC001090961577    0.1800
     43 H43        -8.4174    4.4914   65.9801 H       1  ZINC001090961577    0.1100
     44 H44        -8.1033    3.1906   64.8063 H       1  ZINC001090961577    0.0700
     45 H45        -9.7035    3.3299   65.5732 H       1  ZINC001090961577    0.0700
     46 H46       -10.7497    1.1622   65.2910 H       1  ZINC001090961577    0.1800
     47 H47       -11.0855   -1.1637   59.2376 H       1  ZINC001090961577    0.0900
     48 H48        -9.3319   -1.4986   59.1033 H       1  ZINC001090961577    0.0800
@<TRIPOS>BOND
     1     1     2    1
     2     1    27    1
     3     1    28    1
     4     1    29    1
     5     2     3    1
     6     2    30    1
     7     2    31    1
     8     3     4    1
     9     4     5    1
    10     4    32    1
    11     4    33    1
    12     5     6    1
    13     5    34    1
    14     5    35    1
    15     6     7    2
    16     6     8   am
    17     8    26    1
    18     8     9    1
    19     9    10    1
    20     9    36    1
    21     9    37    1
    22    10    11    1
    23    10    12    1
    24    10    13    1
    25    12    38    1
    26    12    39    1
    27    12    40    1
    28    13    14    1
    29    13    15    1
    30    13    26    1
    31    15    16    1
    32    15    41    1
    33    16    25   ar
    34    16    17   ar
    35    17    18   ar
    36    18    19   ar
    37    18    42    1
    38    19    20    1
    39    19    24   ar
    40    20    21    2
    41    20    22    1
    42    22    23    1
    43    23    43    1
    44    23    44    1
    45    23    45    1
    46    24    25   ar
    47    24    46    1
    48    26    47    1
    49    26    48    1
@<TRIPOS>SUBSTRUCTURE
     1 ZINC001090961577        1 TEMP              0 ****  ****    0 ROOT


##########                                Name:    ZINC000263872566
##########                DOCK_Rotatable_Bonds:                   9
##########                         Heavy_Atoms:                  26
##########                    Molecular_Weight:             362.469
##########                DOCK_Rotatable_Bonds:                   9
##########                       Formal_Charge:           0.0300001
##########                     HBond_Acceptors:                   6
##########                        HBond_Donors:                   2
##########                         Heavy_Atoms:                  26
##########                          Grid_Score:          -30.945742
##########                     Grid_vdw_energy:          -29.192524
##########                      Grid_es_energy:           -1.753218
##########           Internal_energy_repulsive:           24.054052

@<TRIPOS>MOLECULE
ZINC000263872566
 56 57 1 0 0
SMALL
USER_CHARGES


@<TRIPOS>ATOM
      1 C1         -0.0372   -1.8004   48.7929 C.3     1  ZINC000263872566   -0.1800
      2 C2          1.4181   -1.4636   49.1238 C.3     1  ZINC000263872566    0.1400
      3 H3          1.9141   -2.3484   49.5231 H       1  ZINC000263872566    0.0700
      4 O4          2.0897   -1.0361   47.9371 O.3     1  ZINC000263872566   -0.5600
      5 C5          1.4579   -0.3598   50.1489 C.ar    1  ZINC000263872566   -0.0800
      6 C6          0.8649    0.8587   49.8758 C.ar    1  ZINC000263872566   -0.0900
      7 C7          0.9013    1.8714   50.8160 C.ar    1  ZINC000263872566   -0.1000
      8 C8          1.5302    1.6653   52.0297 C.ar    1  ZINC000263872566   -0.1100
      9 C9          1.5703    2.7694   53.0547 C.3     1  ZINC000263872566    0.1800
     10 N10         0.2058    3.2185   53.3422 N.am    1  ZINC000263872566   -0.7400
     11 C11        -0.1877    4.4547   52.9768 C.2     1  ZINC000263872566    0.7100
     12 O12         0.5897    5.1971   52.4087 O.2     1  ZINC000263872566   -0.5900
     13 N13        -1.4431    4.8679   53.2413 N.am    1  ZINC000263872566   -0.6300
     14 C14        -1.8886    6.2105   52.8440 C.3     1  ZINC000263872566    0.1100
     15 C15        -3.1709    6.0795   52.0162 C.3     1  ZINC000263872566   -0.1200
     16 C16        -4.2077    5.2830   52.8116 C.3     1  ZINC000263872566   -0.0800
     17 C17        -5.4824    5.1813   52.0142 C.2     1  ZINC000263872566    0.4700
     18 O18        -5.4513    5.2783   50.8102 O.2     1  ZINC000263872566   -0.5000
     19 O19        -6.6524    4.9829   52.6415 O.3     1  ZINC000263872566   -0.3500
     20 C20        -7.4934    3.9089   52.1437 C.3     1  ZINC000263872566    0.1200
     21 C21        -8.3056    4.4097   50.9478 C.3     1  ZINC000263872566   -0.1800
     22 C22        -6.6155    2.7340   51.7080 C.3     1  ZINC000263872566   -0.1400
     23 C23        -8.4449    3.4513   53.2509 C.3     1  ZINC000263872566   -0.1800
     24 C24        -3.6686    3.8785   53.0925 C.3     1  ZINC000263872566   -0.1300
     25 C25        -2.3938    3.9823   53.9271 C.3     1  ZINC000263872566    0.1300
     26 C26         2.1219    0.4463   52.3034 C.ar    1  ZINC000263872566   -0.1000
     27 C27         2.0823   -0.5675   51.3646 C.ar    1  ZINC000263872566   -0.1100
     28 H28        -0.5330   -0.9157   48.3936 H       1  ZINC000263872566    0.0700
     29 H29        -0.0659   -2.5989   48.0515 H       1  ZINC000263872566    0.0600
     30 H30        -0.5495   -2.1265   49.6981 H       1  ZINC000263872566    0.0700
     31 H31         3.0226   -0.8183   48.0698 H       1  ZINC000263872566    0.3800
     32 H32         0.3736    1.0198   48.9276 H       1  ZINC000263872566    0.1300
     33 H33         0.4387    2.8236   50.6024 H       1  ZINC000263872566    0.1300
     34 H34         2.0314    2.3987   53.9701 H       1  ZINC000263872566    0.0800
     35 H35         2.1534    3.6045   52.6665 H       1  ZINC000263872566    0.0800
     36 H36        -0.4145    2.6263   53.7954 H       1  ZINC000263872566    0.4000
     37 H37        -2.0874    6.8077   53.7339 H       1  ZINC000263872566    0.0800
     38 H38        -1.1143    6.6900   52.2450 H       1  ZINC000263872566    0.0800
     39 H39        -3.5649    7.0717   51.7962 H       1  ZINC000263872566    0.0900
     40 H40        -2.9504    5.5602   51.0835 H       1  ZINC000263872566    0.0800
     41 H41        -4.4092    5.7899   53.7553 H       1  ZINC000263872566    0.1100
     42 H42        -7.6276    4.7357   50.1590 H       1  ZINC000263872566    0.0600
     43 H43        -8.9369    3.6035   50.5741 H       1  ZINC000263872566    0.0700
     44 H44        -8.9310    5.2468   51.2582 H       1  ZINC000263872566    0.0800
     45 H45        -6.0369    2.3772   52.5599 H       1  ZINC000263872566    0.0700
     46 H46        -7.2468    1.9278   51.3343 H       1  ZINC000263872566    0.0800
     47 H47        -5.9375    3.0600   50.9191 H       1  ZINC000263872566    0.0700
     48 H48        -9.0704    4.2884   53.5613 H       1  ZINC000263872566    0.0800
     49 H49        -9.0762    2.6452   52.8773 H       1  ZINC000263872566    0.0700
     50 H50        -7.8663    3.0946   54.1029 H       1  ZINC000263872566    0.0600
     51 H51        -4.4169    3.3042   53.6388 H       1  ZINC000263872566    0.0900
     52 H52        -3.4435    3.3799   52.1498 H       1  ZINC000263872566    0.0700
     53 H53        -1.9530    2.9925   54.0455 H       1  ZINC000263872566    0.1000
     54 H54        -2.6310    4.3985   54.9063 H       1  ZINC000263872566    0.0700
     55 H55         2.6130    0.2852   53.2517 H       1  ZINC000263872566    0.1300
     56 H56         2.5445   -1.5198   51.5784 H       1  ZINC000263872566    0.1300
@<TRIPOS>BOND
     1     1     2    1
     2     1    28    1
     3     1    29    1
     4     1    30    1
     5     2     3    1
     6     2     4    1
     7     2     5    1
     8     4    31    1
     9     5    27   ar
    10     5     6   ar
    11     6     7   ar
    12     6    32    1
    13     7     8   ar
    14     7    33    1
    15     8     9    1
    16     8    26   ar
    17     9    10    1
    18     9    34    1
    19     9    35    1
    20    10    11   am
    21    10    36    1
    22    11    12    2
    23    11    13   am
    24    13    25    1
    25    13    14    1
    26    14    15    1
    27    14    37    1
    28    14    38    1
    29    15    16    1
    30    15    39    1
    31    15    40    1
    32    16    17    1
    33    16    24    1
    34    16    41    1
    35    17    18    2
    36    17    19    1
    37    19    20    1
    38    20    21    1
    39    20    22    1
    40    20    23    1
    41    21    42    1
    42    21    43    1
    43    21    44    1
    44    22    45    1
    45    22    46    1
    46    22    47    1
    47    23    48    1
    48    23    49    1
    49    23    50    1
    50    24    25    1
    51    24    51    1
    52    24    52    1
    53    25    53    1
    54    25    54    1
    55    26    27   ar
    56    26    55    1
    57    27    56    1
@<TRIPOS>SUBSTRUCTURE
     1 ZINC000263872566        1 TEMP              0 ****  ****    0 ROOT


##########                                Name:    ZINC001707162141
##########                DOCK_Rotatable_Bonds:                   9
##########                         Heavy_Atoms:                  25
##########                    Molecular_Weight:               344.5
##########                DOCK_Rotatable_Bonds:                   9
##########                       Formal_Charge:          -0.0299999
##########                     HBond_Acceptors:                   5
##########                        HBond_Donors:                   1
##########                         Heavy_Atoms:                  25
##########                          Grid_Score:          -30.921837
##########                     Grid_vdw_energy:          -31.957380
##########                      Grid_es_energy:            1.035544
##########           Internal_energy_repulsive:           81.600876

@<TRIPOS>MOLECULE
ZINC001707162141
 57 59 1 0 0
SMALL
USER_CHARGES


@<TRIPOS>ATOM
      1 C1         -7.3121    3.6303   50.7694 C.3     1  ZINC001707162141   -0.1800
      2 C2         -6.8816    3.2821   52.1956 C.3     1  ZINC001707162141    0.1700
      3 H3         -7.4641    3.8703   52.9048 H       1  ZINC001707162141    0.1000
      4 N4         -7.1107    1.8519   52.4410 N.3     1  ZINC001707162141   -0.6400
      5 C5         -7.5312    1.6167   53.8289 C.3     1  ZINC001707162141    0.0700
      6 C6         -8.4256    0.3768   53.8875 C.3     1  ZINC001707162141    0.1500
      7 H7         -7.8493   -0.5033   53.6022 H       1  ZINC001707162141    0.0700
      8 C8         -9.6091    0.5515   52.9307 C.3     1  ZINC001707162141   -0.1200
      9 C9        -10.5716   -0.6268   53.0957 C.3     1  ZINC001707162141   -0.0900
     10 H10       -10.0442   -1.5580   52.8889 H       1  ZINC001707162141    0.0700
     11 C11       -11.7377   -0.4733   52.1171 C.3     1  ZINC001707162141   -0.1500
     12 C12       -11.1086   -0.6523   54.5286 C.3     1  ZINC001707162141   -0.1300
     13 C13        -9.9421   -0.8407   55.5034 C.3     1  ZINC001707162141    0.1100
     14 N14        -8.9420    0.2060   55.2523 N.am    1  ZINC001707162141   -0.6100
     15 C15        -8.5071    0.9949   56.2548 C.2     1  ZINC001707162141    0.5100
     16 O16        -7.6814    1.8555   56.0347 O.2     1  ZINC001707162141   -0.4800
     17 C17        -9.0469    0.8078   57.6493 C.3     1  ZINC001707162141   -0.1400
     18 C18        -8.3917    1.8210   58.5900 C.3     1  ZINC001707162141   -0.0900
     19 C19        -8.9014    1.5975   60.0153 C.3     1  ZINC001707162141   -0.0900
     20 C20        -8.4383    0.2270   60.5134 C.3     1  ZINC001707162141   -0.1500
     21 C21        -9.5156   -0.8189   60.8075 C.3     1  ZINC001707162141   -0.1800
     22 C22        -8.7670   -0.1469   61.9602 C.3     1  ZINC001707162141   -0.1800
     23 C23        -5.4171    3.5931   52.3684 C.ar    1  ZINC001707162141    0.3500
     24 N24        -4.8718    3.4699   53.5618 N.ar    1  ZINC001707162141   -0.5000
     25 C25        -3.5878    3.7288   53.7504 C.ar    1  ZINC001707162141    0.1500
     26 C26        -2.8190    4.1449   52.6749 C.ar    1  ZINC001707162141   -0.2400
     27 C27        -3.4294    4.2681   51.4366 C.ar    1  ZINC001707162141    0.1500
     28 N28        -4.7173    3.9862   51.3231 N.ar    1  ZINC001707162141   -0.5200
     29 H29        -8.3713    3.4052   50.6444 H       1  ZINC001707162141    0.0600
     30 H30        -7.1420    4.6913   50.5873 H       1  ZINC001707162141    0.0600
     31 H31        -6.7296    3.0420   50.0603 H       1  ZINC001707162141    0.0600
     32 H32        -7.7846    1.4769   51.7906 H       1  ZINC001707162141    0.3300
     33 H33        -6.6517    1.4602   54.4534 H       1  ZINC001707162141    0.1000
     34 H34        -8.0856    2.4820   54.1921 H       1  ZINC001707162141    0.0200
     35 H35       -10.1292    1.4812   53.1614 H       1  ZINC001707162141    0.0700
     36 H36        -9.2452    0.5830   51.9037 H       1  ZINC001707162141    0.0700
     37 H37       -12.2656    0.4576   52.3240 H       1  ZINC001707162141    0.0500
     38 H38       -11.3555   -0.4552   51.0964 H       1  ZINC001707162141    0.0600
     39 H39       -12.4227   -1.3131   52.2336 H       1  ZINC001707162141    0.0600
     40 H40       -11.8119   -1.4776   54.6389 H       1  ZINC001707162141    0.0700
     41 H41       -11.6146    0.2888   54.7442 H       1  ZINC001707162141    0.0700
     42 H42        -9.4915   -1.8211   55.3490 H       1  ZINC001707162141    0.0600
     43 H43       -10.3054   -0.7606   56.5280 H       1  ZINC001707162141    0.0800
     44 H44       -10.1261    0.9612   57.6448 H       1  ZINC001707162141    0.0800
     45 H45        -8.8250   -0.2028   57.9922 H       1  ZINC001707162141    0.0800
     46 H46        -7.3096    1.6917   58.5667 H       1  ZINC001707162141    0.0700
     47 H47        -8.6439    2.8315   58.2683 H       1  ZINC001707162141    0.0700
     48 H48        -8.5052    2.3745   60.6689 H       1  ZINC001707162141    0.0600
     49 H49        -9.9907    1.6375   60.0220 H       1  ZINC001707162141    0.0600
     50 H50        -7.4915   -0.1264   60.1050 H       1  ZINC001707162141    0.1000
     51 H51       -10.5543   -0.5306   60.6459 H       1  ZINC001707162141    0.0900
     52 H52        -9.2777   -1.8607   60.5923 H       1  ZINC001707162141    0.0900
     53 H53        -8.0366   -0.7464   62.5035 H       1  ZINC001707162141    0.0900
     54 H54        -9.3132    0.5835   62.5570 H       1  ZINC001707162141    0.0900
     55 H55        -3.1460    3.6220   54.7300 H       1  ZINC001707162141    0.1600
     56 H56        -1.7694    4.3675   52.7986 H       1  ZINC001707162141    0.1400
     57 H57        -2.8616    4.5901   50.5762 H       1  ZINC001707162141    0.1600
@<TRIPOS>BOND
     1     1     2    1
     2     1    29    1
     3     1    30    1
     4     1    31    1
     5     2     3    1
     6     2     4    1
     7     2    23    1
     8     4     5    1
     9     4    32    1
    10     5     6    1
    11     5    33    1
    12     5    34    1
    13     6     7    1
    14     6    14    1
    15     6     8    1
    16     8     9    1
    17     8    35    1
    18     8    36    1
    19     9    10    1
    20     9    11    1
    21     9    12    1
    22    11    37    1
    23    11    38    1
    24    11    39    1
    25    12    13    1
    26    12    40    1
    27    12    41    1
    28    13    14    1
    29    13    42    1
    30    13    43    1
    31    14    15   am
    32    15    16    2
    33    15    17    1
    34    17    18    1
    35    17    44    1
    36    17    45    1
    37    18    19    1
    38    18    46    1
    39    18    47    1
    40    19    20    1
    41    19    48    1
    42    19    49    1
    43    20    22    1
    44    20    21    1
    45    20    50    1
    46    21    22    1
    47    21    51    1
    48    21    52    1
    49    22    53    1
    50    22    54    1
    51    23    28   ar
    52    23    24   ar
    53    24    25   ar
    54    25    26   ar
    55    25    55    1
    56    26    27   ar
    57    26    56    1
    58    27    28   ar
    59    27    57    1
@<TRIPOS>SUBSTRUCTURE
     1 ZINC001707162141        1 TEMP              0 ****  ****    0 ROOT


##########                                Name:    ZINC000751548479
##########                DOCK_Rotatable_Bonds:                   9
##########                         Heavy_Atoms:                  27
##########                    Molecular_Weight:             389.407
##########                DOCK_Rotatable_Bonds:                   9
##########                       Formal_Charge:           0.0199995
##########                     HBond_Acceptors:                   9
##########                        HBond_Donors:                   2
##########                         Heavy_Atoms:                  27
##########                          Grid_Score:          -30.899532
##########                     Grid_vdw_energy:          -29.842497
##########                      Grid_es_energy:           -1.057036
##########           Internal_energy_repulsive:           13.768787

@<TRIPOS>MOLECULE
ZINC000751548479
 43 44 1 0 0
SMALL
USER_CHARGES


@<TRIPOS>ATOM
      1 C1         -6.7934    3.4964   51.3723 C.3     1  ZINC000751548479   -0.1600
      2 C2         -6.3517    3.8816   52.7856 C.3     1  ZINC000751548479    0.0800
      3 O3         -6.1873    2.6810   53.5854 O.3     1  ZINC000751548479   -0.3600
      4 C4         -7.2996    2.1518   54.1294 C.2     1  ZINC000751548479    0.6500
      5 O5         -8.3236    2.8044   54.1741 O.2     1  ZINC000751548479   -0.5400
      6 N6         -7.2770    0.8984   54.6242 N.am    1  ZINC000751548479   -0.6500
      7 C7         -8.4305    0.3495   55.1883 C.ar    1  ZINC000751548479    0.2000
      8 C8         -8.8129    0.7050   56.4737 C.ar    1  ZINC000751548479   -0.1000
      9 C9         -9.9530    0.1633   57.0328 C.ar    1  ZINC000751548479   -0.1000
     10 C10       -10.7263   -0.7417   56.3137 C.ar    1  ZINC000751548479    0.1300
     11 N11       -11.8800   -1.2857   56.8893 N.am    1  ZINC000751548479   -1.0500
     12 S12       -11.7560   -2.5300   57.9749 S.o2    1  ZINC000751548479    2.6800
     13 O13       -13.0643   -2.7507   58.4835 O.2     1  ZINC000751548479   -0.9500
     14 O14       -10.9884   -3.5426   57.3387 O.2     1  ZINC000751548479   -0.9400
     15 C15       -10.7881   -1.9477   59.3273 C.2     1  ZINC000751548479   -0.7500
     16 C16       -11.3329   -1.1546   60.2394 C.2     1  ZINC000751548479    0.0700
     17 C17       -10.5216   -0.6677   61.3747 C.ar    1  ZINC000751548479   -0.1100
     18 C18        -9.1377   -0.8473   61.3742 C.ar    1  ZINC000751548479   -0.0600
     19 C19        -8.3851   -0.3905   62.4361 C.ar    1  ZINC000751548479   -0.1600
     20 C20        -9.0009    0.2454   63.5022 C.ar    1  ZINC000751548479    0.1200
     21 F21        -8.2593    0.6906   64.5400 F       1  ZINC000751548479   -0.1300
     22 C22       -10.3747    0.4267   63.5074 C.ar    1  ZINC000751548479   -0.1600
     23 C23       -11.1360   -0.0215   62.4482 C.ar    1  ZINC000751548479   -0.0500
     24 C24       -10.3578   -1.1055   55.0293 C.ar    1  ZINC000751548479   -0.0600
     25 C25        -9.2087   -0.5583   54.4548 C.ar    1  ZINC000751548479   -0.0300
     26 C26        -8.8215   -0.9292   53.1270 C.1     1  ZINC000751548479    0.2500
     27 N27        -8.5144   -1.2235   52.0736 N.1     1  ZINC000751548479   -0.4000
     28 H28        -7.7410    2.9599   51.4214 H       1  ZINC000751548479    0.0700
     29 H29        -6.9169    4.3977   50.7719 H       1  ZINC000751548479    0.0900
     30 H30        -6.0372    2.8572   50.9168 H       1  ZINC000751548479    0.0700
     31 H31        -5.4042    4.4182   52.7365 H       1  ZINC000751548479    0.0800
     32 H32        -7.1079    4.5209   53.2411 H       1  ZINC000751548479    0.0800
     33 H33        -6.4595    0.3776   54.5885 H       1  ZINC000751548479    0.4200
     34 H34        -8.2171    1.4069   57.0383 H       1  ZINC000751548479    0.1600
     35 H35       -10.2456    0.4435   58.0340 H       1  ZINC000751548479    0.1700
     36 H36       -12.7524   -0.9339   56.6523 H       1  ZINC000751548479    0.4300
     37 H37        -9.7511   -2.2369   59.4132 H       1  ZINC000751548479    0.1700
     38 H38       -12.3696   -0.8644   60.1527 H       1  ZINC000751548479    0.1500
     39 H39        -8.6568   -1.3434   60.5441 H       1  ZINC000751548479    0.1400
     40 H40        -7.3140   -0.5290   62.4368 H       1  ZINC000751548479    0.1400
     41 H41       -10.8498    0.9232   64.3406 H       1  ZINC000751548479    0.1400
     42 H42       -12.2066    0.1205   62.4531 H       1  ZINC000751548479    0.1400
     43 H43       -10.9594   -1.8084   54.4722 H       1  ZINC000751548479    0.1500
@<TRIPOS>BOND
     1     1     2    1
     2     1    28    1
     3     1    29    1
     4     1    30    1
     5     2     3    1
     6     2    31    1
     7     2    32    1
     8     3     4    1
     9     4     5    2
    10     4     6   am
    11     6     7    1
    12     6    33    1
    13     7    25   ar
    14     7     8   ar
    15     8     9   ar
    16     8    34    1
    17     9    10   ar
    18     9    35    1
    19    10    11    1
    20    10    24   ar
    21    11    12   am
    22    11    36    1
    23    12    13    2
    24    12    14    2
    25    12    15    1
    26    15    16    2
    27    15    37    1
    28    16    17    1
    29    16    38    1
    30    17    23   ar
    31    17    18   ar
    32    18    19   ar
    33    18    39    1
    34    19    20   ar
    35    19    40    1
    36    20    21    1
    37    20    22   ar
    38    22    23   ar
    39    22    41    1
    40    23    42    1
    41    24    25   ar
    42    24    43    1
    43    25    26    1
    44    26    27    3
@<TRIPOS>SUBSTRUCTURE
     1 ZINC000751548479        1 TEMP              0 ****  ****    0 ROOT


##########                                Name:    ZINC000010935976
##########                DOCK_Rotatable_Bonds:                   3
##########                         Heavy_Atoms:                  26
##########                    Molecular_Weight:             391.558
##########                DOCK_Rotatable_Bonds:                   3
##########                       Formal_Charge:         -0.00999979
##########                     HBond_Acceptors:                   7
##########                        HBond_Donors:                   1
##########                         Heavy_Atoms:                  26
##########                          Grid_Score:          -30.877012
##########                     Grid_vdw_energy:          -30.768545
##########                      Grid_es_energy:           -0.108468
##########           Internal_energy_repulsive:          144.110397

@<TRIPOS>MOLECULE
ZINC000010935976
 51 54 1 0 0
SMALL
USER_CHARGES


@<TRIPOS>ATOM
      1 C1         -8.1095    0.7889   52.8452 C.3     1  ZINC000010935976   -0.0800
      2 C2         -8.9214    0.1584   53.9471 C.2     1  ZINC000010935976   -0.2100
      3 C3         -8.8081    0.4665   55.2243 C.2     1  ZINC000010935976   -0.0400
      4 C4         -7.8356    1.5027   55.7263 C.3     1  ZINC000010935976   -0.1000
      5 C5         -9.6924   -0.2690   56.1091 C.2     1  ZINC000010935976   -0.2300
      6 C6        -10.4976   -1.1693   55.4150 C.2     1  ZINC000010935976    0.0900
      7 N7        -11.3787   -1.9340   56.0899 N.2     1  ZINC000010935976   -0.4900
      8 C8        -11.5008   -1.8539   57.3932 C.2     1  ZINC000010935976    0.3400
      9 S9        -12.6727   -2.8838   58.2121 S.3     1  ZINC000010935976    0.0500
     10 C10       -13.3046   -3.8247   56.8009 C.3     1  ZINC000010935976   -0.1000
     11 H11       -12.4863   -4.3659   56.3257 H       1  ZINC000010935976    0.1400
     12 C12       -13.9445   -2.8693   55.7907 C.3     1  ZINC000010935976   -0.1000
     13 C13       -14.6247   -1.7129   56.5007 C.3     1  ZINC000010935976   -0.1300
     14 C14       -15.8324   -2.1238   57.3231 C.3     1  ZINC000010935976   -0.1400
     15 C15       -15.4129   -2.9891   58.5130 C.3     1  ZINC000010935976    0.0700
     16 N16       -15.3445   -4.3924   58.0740 N.am    1  ZINC000010935976   -0.7200
     17 C17       -14.3566   -4.8059   57.2736 C.2     1  ZINC000010935976    0.5400
     18 O18       -14.3083   -5.9658   56.9228 O.2     1  ZINC000010935976   -0.5200
     19 N19       -10.7415   -0.9921   58.1305 N.am    1  ZINC000010935976   -0.5100
     20 C20       -10.9085   -0.9338   59.5847 C.3     1  ZINC000010935976    0.1200
     21 C21        -9.7266   -1.6394   60.2811 C.3     1  ZINC000010935976   -0.1300
     22 C22        -8.7445   -0.4905   60.6196 C.3     1  ZINC000010935976   -0.1300
     23 C23        -9.6948    0.6624   61.0278 C.3     1  ZINC000010935976   -0.1100
     24 C24       -10.8883    0.5297   60.0595 C.3     1  ZINC000010935976   -0.1200
     25 C25        -9.8383   -0.1954   57.5268 C.2     1  ZINC000010935976    0.5600
     26 O26        -9.1577    0.5764   58.1805 O.2     1  ZINC000010935976   -0.5000
     27 S27       -10.1430   -1.0737   53.6948 S.3     1  ZINC000010935976    0.2100
     28 H28        -8.4024    0.3598   51.8869 H       1  ZINC000010935976    0.0700
     29 H29        -8.2885    1.8641   52.8317 H       1  ZINC000010935976    0.0800
     30 H30        -7.0505    0.5990   53.0198 H       1  ZINC000010935976    0.0800
     31 H31        -8.3184    2.4799   55.7350 H       1  ZINC000010935976    0.0700
     32 H32        -7.5193    1.2446   56.7369 H       1  ZINC000010935976    0.0800
     33 H33        -6.9660    1.5329   55.0698 H       1  ZINC000010935976    0.0700
     34 H34       -13.1728   -2.4791   55.1271 H       1  ZINC000010935976    0.0900
     35 H35       -14.6828   -3.4126   55.2009 H       1  ZINC000010935976    0.0900
     36 H36       -13.9004   -1.2355   57.1606 H       1  ZINC000010935976    0.0700
     37 H37       -14.9433   -0.9854   55.7543 H       1  ZINC000010935976    0.0800
     38 H38       -16.3369   -1.2301   57.6902 H       1  ZINC000010935976    0.0800
     39 H39       -16.5193   -2.6891   56.6934 H       1  ZINC000010935976    0.0700
     40 H40       -14.4340   -2.6696   58.8706 H       1  ZINC000010935976    0.1100
     41 H41       -16.1469   -2.8915   59.3130 H       1  ZINC000010935976    0.0900
     42 H42       -16.0197   -5.0232   58.3694 H       1  ZINC000010935976    0.4000
     43 H43       -11.8480   -1.4065   59.8716 H       1  ZINC000010935976    0.1000
     44 H44       -10.0616   -2.1356   61.1920 H       1  ZINC000010935976    0.0800
     45 H45        -9.2581   -2.3553   59.6058 H       1  ZINC000010935976    0.0700
     46 H46        -8.0959   -0.7690   61.4503 H       1  ZINC000010935976    0.0600
     47 H47        -8.1563   -0.2147   59.7445 H       1  ZINC000010935976    0.1100
     48 H48       -10.0247    0.5379   62.0592 H       1  ZINC000010935976    0.0600
     49 H49        -9.2031    1.6264   60.8973 H       1  ZINC000010935976    0.0700
     50 H50       -10.7542    1.1966   59.2079 H       1  ZINC000010935976    0.0800
     51 H51       -11.8176    0.7670   60.5774 H       1  ZINC000010935976    0.0700
@<TRIPOS>BOND
     1     1     2    1
     2     1    28    1
     3     1    29    1
     4     1    30    1
     5     2    27    1
     6     2     3    2
     7     3     4    1
     8     3     5    1
     9     4    31    1
    10     4    32    1
    11     4    33    1
    12     5    25    1
    13     5     6    2
    14     6     7    1
    15     6    27    1
    16     7     8    2
    17     8     9    1
    18     8    19    1
    19     9    10    1
    20    10    11    1
    21    10    17    1
    22    10    12    1
    23    12    13    1
    24    12    34    1
    25    12    35    1
    26    13    14    1
    27    13    36    1
    28    13    37    1
    29    14    15    1
    30    14    38    1
    31    14    39    1
    32    15    16    1
    33    15    40    1
    34    15    41    1
    35    16    17   am
    36    16    42    1
    37    17    18    2
    38    19    20    1
    39    19    25   am
    40    20    24    1
    41    20    21    1
    42    20    43    1
    43    21    22    1
    44    21    44    1
    45    21    45    1
    46    22    23    1
    47    22    46    1
    48    22    47    1
    49    23    24    1
    50    23    48    1
    51    23    49    1
    52    24    50    1
    53    24    51    1
    54    25    26    2
@<TRIPOS>SUBSTRUCTURE
     1 ZINC000010935976        1 TEMP              0 ****  ****    0 ROOT


##########                                Name:    ZINC000558052810
##########                DOCK_Rotatable_Bonds:                   9
##########                         Heavy_Atoms:                  30
##########                    Molecular_Weight:             424.524
##########                DOCK_Rotatable_Bonds:                   9
##########                       Formal_Charge:          -0.0200002
##########                     HBond_Acceptors:                   8
##########                        HBond_Donors:                   1
##########                         Heavy_Atoms:                  30
##########                          Grid_Score:          -30.847452
##########                     Grid_vdw_energy:          -30.025106
##########                      Grid_es_energy:           -0.822345
##########           Internal_energy_repulsive:           14.102456

@<TRIPOS>MOLECULE
ZINC000558052810
 54 56 1 0 0
SMALL
USER_CHARGES


@<TRIPOS>ATOM
      1 C1         -8.0923    4.6002   49.1214 C.3     1  ZINC000558052810   -0.1700
      2 C2         -7.4932    4.3267   50.5024 C.3     1  ZINC000558052810    0.1100
      3 N3         -8.1806    3.1877   51.1160 N.am    1  ZINC000558052810   -0.6100
      4 C4         -7.5204    1.8814   51.1798 C.3     1  ZINC000558052810    0.0700
      5 C5         -9.4203    3.3416   51.6218 C.2     1  ZINC000558052810    0.5600
      6 O6         -9.9680    4.4254   51.5691 O.2     1  ZINC000558052810   -0.5300
      7 C7        -10.1140    2.1920   52.2411 C.ar    1  ZINC000558052810   -0.1100
      8 C8        -11.2346    1.6346   51.6231 C.ar    1  ZINC000558052810   -0.1100
      9 C9        -11.8804    0.5616   52.2033 C.ar    1  ZINC000558052810   -0.1000
     10 C10       -11.4218    0.0357   53.3964 C.ar    1  ZINC000558052810   -0.1300
     11 C11       -10.3070    0.5839   54.0200 C.ar    1  ZINC000558052810    0.1400
     12 N12        -9.8471    0.0483   55.2277 N.am    1  ZINC000558052810   -0.6600
     13 C13       -10.2180    0.6064   56.3970 C.2     1  ZINC000558052810    0.5600
     14 O14       -10.9527    1.5757   56.4022 O.2     1  ZINC000558052810   -0.4800
     15 C15        -9.7336    0.0422   57.6692 C.ar    1  ZINC000558052810   -0.1900
     16 C16        -8.8462    0.7630   58.4764 C.ar    1  ZINC000558052810   -0.0200
     17 C17        -8.4209    0.1889   59.6614 C.ar    1  ZINC000558052810   -0.1900
     18 C18        -8.8792   -1.0684   60.0130 C.ar    1  ZINC000558052810    0.1500
     19 N19        -9.7150   -1.7325   59.2392 N.ar    1  ZINC000558052810   -0.4900
     20 C20       -10.1590   -1.2281   58.0974 C.ar    1  ZINC000558052810    0.1600
     21 S21       -11.2751   -2.1603   57.1025 S.3     1  ZINC000558052810    0.0600
     22 C22       -12.8253   -1.3088   57.4872 C.3     1  ZINC000558052810   -0.0700
     23 C23       -13.5197   -2.0175   58.6214 C.2     1  ZINC000558052810   -0.2000
     24 C24       -13.5658   -1.6573   59.9263 C.2     1  ZINC000558052810   -0.0100
     25 C25       -12.9220   -0.4467   60.5514 C.3     1  ZINC000558052810   -0.0800
     26 O26       -14.2972   -2.5904   60.5519 O.3     1  ZINC000558052810    0.1000
     27 N27       -14.6810   -3.4426   59.7847 N.2     1  ZINC000558052810   -0.3600
     28 C28       -14.2793   -3.2088   58.5688 C.2     1  ZINC000558052810    0.0300
     29 C29       -14.5600   -4.0472   57.3484 C.3     1  ZINC000558052810   -0.0800
     30 C30        -9.6474    1.6573   53.4420 C.ar    1  ZINC000558052810   -0.0700
     31 H31        -7.9697    3.7193   48.4911 H       1  ZINC000558052810    0.0600
     32 H32        -9.1531    4.8285   49.2243 H       1  ZINC000558052810    0.0600
     33 H33        -7.5809    5.4476   48.6649 H       1  ZINC000558052810    0.0700
     34 H34        -6.4324    4.0983   50.3994 H       1  ZINC000558052810    0.0800
     35 H35        -7.6158    5.2075   51.1326 H       1  ZINC000558052810    0.0800
     36 H36        -6.8868    1.8374   52.0656 H       1  ZINC000558052810    0.0600
     37 H37        -8.2739    1.0957   51.2326 H       1  ZINC000558052810    0.0800
     38 H38        -6.9091    1.7393   50.2885 H       1  ZINC000558052810    0.0700
     39 H39       -11.5965    2.0431   50.6912 H       1  ZINC000558052810    0.1400
     40 H40       -12.7474    0.1318   51.7236 H       1  ZINC000558052810    0.1400
     41 H41       -11.9316   -0.8037   53.8457 H       1  ZINC000558052810    0.1300
     42 H42        -9.2612   -0.7247   55.2235 H       1  ZINC000558052810    0.4100
     43 H43        -8.5014    1.7431   58.1814 H       1  ZINC000558052810    0.1400
     44 H44        -7.7359    0.7183   60.3071 H       1  ZINC000558052810    0.1500
     45 H45        -8.5457   -1.5142   60.9384 H       1  ZINC000558052810    0.1700
     46 H46       -12.6124   -0.2801   57.7776 H       1  ZINC000558052810    0.1000
     47 H47       -13.4696   -1.3122   56.6079 H       1  ZINC000558052810    0.1000
     48 H48       -13.6182    0.3914   60.5213 H       1  ZINC000558052810    0.0900
     49 H49       -12.6630   -0.6669   61.5870 H       1  ZINC000558052810    0.0900
     50 H50       -12.0190   -0.1889   59.9980 H       1  ZINC000558052810    0.0900
     51 H51       -15.4816   -3.7056   56.8770 H       1  ZINC000558052810    0.0800
     52 H52       -13.7341   -3.9510   56.6436 H       1  ZINC000558052810    0.0800
     53 H53       -14.6675   -5.0915   57.6418 H       1  ZINC000558052810    0.0800
     54 H54        -8.7808    2.0845   53.9249 H       1  ZINC000558052810    0.1500
@<TRIPOS>BOND
     1     1     2    1
     2     1    31    1
     3     1    32    1
     4     1    33    1
     5     2     3    1
     6     2    34    1
     7     2    35    1
     8     3     4    1
     9     3     5   am
    10     4    36    1
    11     4    37    1
    12     4    38    1
    13     5     6    2
    14     5     7    1
    15     7    30   ar
    16     7     8   ar
    17     8     9   ar
    18     8    39    1
    19     9    10   ar
    20     9    40    1
    21    10    11   ar
    22    10    41    1
    23    11    12    1
    24    11    30   ar
    25    12    13   am
    26    12    42    1
    27    13    14    2
    28    13    15    1
    29    15    20   ar
    30    15    16   ar
    31    16    17   ar
    32    16    43    1
    33    17    18   ar
    34    17    44    1
    35    18    19   ar
    36    18    45    1
    37    19    20   ar
    38    20    21    1
    39    21    22    1
    40    22    23    1
    41    22    46    1
    42    22    47    1
    43    23    28    1
    44    23    24    2
    45    24    25    1
    46    24    26    1
    47    25    48    1
    48    25    49    1
    49    25    50    1
    50    26    27    1
    51    27    28    2
    52    28    29    1
    53    29    51    1
    54    29    52    1
    55    29    53    1
    56    30    54    1
@<TRIPOS>SUBSTRUCTURE
     1 ZINC000558052810        1 TEMP              0 ****  ****    0 ROOT


##########                                Name:    ZINC000545381384
##########                DOCK_Rotatable_Bonds:                   6
##########                         Heavy_Atoms:                  30
##########                    Molecular_Weight:             405.543
##########                DOCK_Rotatable_Bonds:                   6
##########                       Formal_Charge:                0.05
##########                     HBond_Acceptors:                   6
##########                        HBond_Donors:                   1
##########                         Heavy_Atoms:                  30
##########                          Grid_Score:          -30.808273
##########                     Grid_vdw_energy:          -30.939219
##########                      Grid_es_energy:            0.130945
##########           Internal_energy_repulsive:           17.657179

@<TRIPOS>MOLECULE
ZINC000545381384
 61 64 1 0 0
SMALL
USER_CHARGES


@<TRIPOS>ATOM
      1 C1        -12.6361   -0.4655   54.1380 C.3     1  ZINC000545381384   -0.2000
      2 C2        -11.2811   -1.0940   54.4697 C.3     1  ZINC000545381384    0.0500
      3 N3        -10.2572   -0.0428   54.5376 N.3     1  ZINC000545381384   -0.5300
      4 C4         -9.0982   -0.3805   53.6964 C.3     1  ZINC000545381384    0.0500
      5 C5         -8.2541    0.8788   53.5024 C.3     1  ZINC000545381384   -0.0700
      6 C6         -7.9638    1.5155   54.8404 C.ar    1  ZINC000545381384    0.1800
      7 C7         -8.7080    1.1887   55.9679 C.ar    1  ZINC000545381384   -0.0800
      8 C8         -9.8296    0.1854   55.9216 C.3     1  ZINC000545381384    0.0900
      9 C9         -8.4172    1.7980   57.1860 C.ar    1  ZINC000545381384   -0.0700
     10 C10        -9.1930    1.4739   58.4021 C.2     1  ZINC000545381384    0.5800
     11 O11       -10.2893    1.9701   58.5739 O.2     1  ZINC000545381384   -0.4800
     12 N12        -8.6846    0.6283   59.3202 N.am    1  ZINC000545381384   -0.6400
     13 C13        -9.4164    0.3214   60.4656 C.2     1  ZINC000545381384    0.3000
     14 C14        -9.5512    1.1068   61.5697 C.2     1  ZINC000545381384   -0.2700
     15 C15       -10.3640    0.4284   62.4815 C.2     1  ZINC000545381384    0.1000
     16 C16       -10.7748    0.9331   63.8407 C.3     1  ZINC000545381384   -0.0300
     17 C17        -9.5789    0.8652   64.7928 C.3     1  ZINC000545381384   -0.0600
     18 C18        -8.5781   -0.1728   64.2813 C.3     1  ZINC000545381384   -0.1500
     19 C19        -8.9025    2.2359   64.8604 C.3     1  ZINC000545381384   -0.1400
     20 C20       -10.0605    0.4648   66.1888 C.3     1  ZINC000545381384   -0.1400
     21 N21       -10.7084   -0.7188   61.9552 N.2     1  ZINC000545381384   -0.2700
     22 N22       -10.1307   -0.8131   60.6826 N.pl3   1  ZINC000545381384   -0.3900
     23 C23       -10.2658   -1.9388   59.7549 C.3     1  ZINC000545381384    0.1000
     24 C24        -7.3572    2.7364   57.2274 C.ar    1  ZINC000545381384   -0.0700
     25 C25        -7.0025    3.3906   58.4140 C.ar    1  ZINC000545381384   -0.1100
     26 C26        -5.9746    4.2852   58.4087 C.ar    1  ZINC000545381384   -0.1000
     27 C27        -5.2715    4.5581   57.2370 C.ar    1  ZINC000545381384   -0.1000
     28 C28        -5.5905    3.9414   56.0670 C.ar    1  ZINC000545381384   -0.0900
     29 C29        -6.6458    3.0110   56.0332 C.ar    1  ZINC000545381384    0.1400
     30 N30        -6.9821    2.3914   54.9025 N.ar    1  ZINC000545381384   -0.4600
     31 H31       -12.8875    0.2768   54.8956 H       1  ZINC000545381384    0.0600
     32 H32       -12.5841    0.0155   53.1612 H       1  ZINC000545381384    0.0600
     33 H33       -13.4019   -1.2409   54.1209 H       1  ZINC000545381384    0.0700
     34 H34       -11.3428   -1.6038   55.4312 H       1  ZINC000545381384    0.0900
     35 H35       -11.0140   -1.8120   53.6943 H       1  ZINC000545381384    0.0800
     36 H36        -8.5013   -1.1493   54.1871 H       1  ZINC000545381384    0.0500
     37 H37        -9.4423   -0.7432   52.7278 H       1  ZINC000545381384    0.0900
     38 H38        -7.3151    0.6136   53.0164 H       1  ZINC000545381384    0.1000
     39 H39        -8.7974    1.5857   52.8754 H       1  ZINC000545381384    0.1000
     40 H40       -10.6726    0.5606   56.5019 H       1  ZINC000545381384    0.0900
     41 H41        -9.4891   -0.7556   56.3536 H       1  ZINC000545381384    0.0700
     42 H42        -7.8093    0.2332   59.1837 H       1  ZINC000545381384    0.4100
     43 H43        -9.1081    2.0810   61.7150 H       1  ZINC000545381384    0.1700
     44 H44       -11.1148    1.9653   63.7575 H       1  ZINC000545381384    0.0800
     45 H45       -11.5838    0.3142   64.2289 H       1  ZINC000545381384    0.0800
     46 H46        -8.2350    0.1125   63.2868 H       1  ZINC000545381384    0.0500
     47 H47        -7.7261   -0.2211   64.9596 H       1  ZINC000545381384    0.0500
     48 H48        -9.0600   -1.1493   64.2332 H       1  ZINC000545381384    0.0800
     49 H49        -9.6155    2.9754   65.2248 H       1  ZINC000545381384    0.0600
     50 H50        -8.0506    2.1876   65.5386 H       1  ZINC000545381384    0.0600
     51 H51        -8.5595    2.5212   63.8658 H       1  ZINC000545381384    0.0600
     52 H52       -10.5424   -0.5117   66.1406 H       1  ZINC000545381384    0.0500
     53 H53        -9.2086    0.4165   66.8670 H       1  ZINC000545381384    0.0500
     54 H54       -10.7736    1.2043   66.5531 H       1  ZINC000545381384    0.0500
     55 H55       -11.1331   -1.7795   59.1140 H       1  ZINC000545381384    0.0800
     56 H56        -9.3687   -2.0127   59.1401 H       1  ZINC000545381384    0.0800
     57 H57       -10.3961   -2.8617   60.3198 H       1  ZINC000545381384    0.1000
     58 H58        -7.5408    3.1875   59.3280 H       1  ZINC000545381384    0.1300
     59 H59        -5.7016    4.7892   59.3241 H       1  ZINC000545381384    0.1300
     60 H60        -4.4603    5.2709   57.2579 H       1  ZINC000545381384    0.1400
     61 H61        -5.0361    4.1651   55.1676 H       1  ZINC000545381384    0.1400
@<TRIPOS>BOND
     1     1     2    1
     2     1    31    1
     3     1    32    1
     4     1    33    1
     5     2     3    1
     6     2    34    1
     7     2    35    1
     8     3     8    1
     9     3     4    1
    10     4     5    1
    11     4    36    1
    12     4    37    1
    13     5     6    1
    14     5    38    1
    15     5    39    1
    16     6    30   ar
    17     6     7   ar
    18     7     8    1
    19     7     9   ar
    20     8    40    1
    21     8    41    1
    22     9    10    1
    23     9    24   ar
    24    10    11    2
    25    10    12   am
    26    12    13    1
    27    12    42    1
    28    13    22    1
    29    13    14    2
    30    14    15    1
    31    14    43    1
    32    15    16    1
    33    15    21    2
    34    16    17    1
    35    16    44    1
    36    16    45    1
    37    17    18    1
    38    17    19    1
    39    17    20    1
    40    18    46    1
    41    18    47    1
    42    18    48    1
    43    19    49    1
    44    19    50    1
    45    19    51    1
    46    20    52    1
    47    20    53    1
    48    20    54    1
    49    21    22    1
    50    22    23    1
    51    23    55    1
    52    23    56    1
    53    23    57    1
    54    24    29   ar
    55    24    25   ar
    56    25    26   ar
    57    25    58    1
    58    26    27   ar
    59    26    59    1
    60    27    28   ar
    61    27    60    1
    62    28    29   ar
    63    28    61    1
    64    29    30   ar
@<TRIPOS>SUBSTRUCTURE
     1 ZINC000545381384        1 TEMP              0 ****  ****    0 ROOT


##########                                Name:    ZINC000298969660
##########                DOCK_Rotatable_Bonds:                  10
##########                         Heavy_Atoms:                  29
##########                    Molecular_Weight:             397.474
##########                DOCK_Rotatable_Bonds:                  10
##########                       Formal_Charge:          -0.0100008
##########                     HBond_Acceptors:                   7
##########                        HBond_Donors:                   2
##########                         Heavy_Atoms:                  29
##########                          Grid_Score:          -30.805946
##########                     Grid_vdw_energy:          -30.653868
##########                      Grid_es_energy:           -0.152078
##########           Internal_energy_repulsive:           12.366082

@<TRIPOS>MOLECULE
ZINC000298969660
 56 58 1 0 0
SMALL
USER_CHARGES


@<TRIPOS>ATOM
      1 C1         -9.6113    1.2611   53.2985 C.3     1  ZINC000298969660    0.0800
      2 N2         -8.5208    1.2682   54.2767 N.am    1  ZINC000298969660   -0.6300
      3 C3         -7.1333    1.1295   53.8277 C.3     1  ZINC000298969660    0.1400
      4 C4         -6.5016    2.5159   53.6873 C.3     1  ZINC000298969660    0.0700
      5 H5         -6.4194    2.9792   54.6704 H       1  ZINC000298969660    0.0500
      6 C6         -7.3783    3.3873   52.7839 C.3     1  ZINC000298969660   -0.1500
      7 C7         -6.7092    4.7528   52.5996 C.3     1  ZINC000298969660   -0.1200
      8 C8         -5.3047    4.5474   52.0237 C.3     1  ZINC000298969660   -0.1600
      9 C9         -4.5082    3.6312   52.9564 C.3     1  ZINC000298969660    0.0600
     10 O10        -5.2007    2.3906   53.1092 O.3     1  ZINC000298969660   -0.3600
     11 C11        -8.7941    1.4024   55.5896 C.2     1  ZINC000298969660    0.7100
     12 O12        -9.9458    1.5161   55.9623 O.2     1  ZINC000298969660   -0.5400
     13 N13        -7.7907    1.4106   56.4895 N.am    1  ZINC000298969660   -0.6900
     14 C14        -8.0746    1.5500   57.8526 C.ar    1  ZINC000298969660    0.2000
     15 C15        -7.8792    2.7724   58.4821 C.ar    1  ZINC000298969660   -0.1800
     16 C16        -8.1590    2.9099   59.8282 C.ar    1  ZINC000298969660   -0.0600
     17 C17        -8.6339    1.8325   60.5512 C.ar    1  ZINC000298969660   -0.2300
     18 C18        -8.8311    0.6084   59.9272 C.ar    1  ZINC000298969660    0.1500
     19 O19        -9.2979   -0.4505   60.6398 O.3     1  ZINC000298969660   -0.2900
     20 C20       -10.6667   -0.4053   61.0479 C.3     1  ZINC000298969660    0.0400
     21 C21       -11.4453   -1.4658   60.3128 C.2     1  ZINC000298969660    0.5100
     22 O22       -11.1215   -2.6308   60.4075 O.2     1  ZINC000298969660   -0.4900
     23 N23       -12.5013   -1.1195   59.5504 N.am    1  ZINC000298969660   -0.6700
     24 C24       -13.2242   -2.1043   58.8679 C.ar    1  ZINC000298969660    0.1400
     25 C25       -12.9682   -2.3506   57.5254 C.ar    1  ZINC000298969660   -0.1400
     26 C26       -13.6835   -3.3231   56.8547 C.ar    1  ZINC000298969660   -0.1000
     27 C27       -14.6541   -4.0509   57.5182 C.ar    1  ZINC000298969660   -0.1300
     28 C28       -14.9118   -3.8077   58.8549 C.ar    1  ZINC000298969660   -0.1000
     29 C29       -14.1953   -2.8411   59.5331 C.ar    1  ZINC000298969660   -0.1200
     30 C30        -8.5570    0.4682   58.5760 C.ar    1  ZINC000298969660   -0.1500
     31 H31        -9.9551    0.2382   53.1450 H       1  ZINC000298969660    0.0600
     32 H32       -10.4361    1.8697   53.6694 H       1  ZINC000298969660    0.0700
     33 H33        -9.2543    1.6701   52.3533 H       1  ZINC000298969660    0.0800
     34 H34        -6.5717    0.5466   54.5578 H       1  ZINC000298969660    0.1000
     35 H35        -7.1123    0.6214   52.8637 H       1  ZINC000298969660    0.0900
     36 H36        -7.4943    2.9046   51.8136 H       1  ZINC000298969660    0.0800
     37 H37        -8.3570    3.5205   53.2449 H       1  ZINC000298969660    0.0700
     38 H38        -7.3000    5.3586   51.9125 H       1  ZINC000298969660    0.0700
     39 H39        -6.6378    5.2570   53.5634 H       1  ZINC000298969660    0.0600
     40 H40        -5.3789    4.0881   51.0380 H       1  ZINC000298969660    0.0700
     41 H41        -4.8005    5.5103   51.9410 H       1  ZINC000298969660    0.0700
     42 H42        -3.5222    3.4470   52.5299 H       1  ZINC000298969660    0.0900
     43 H43        -4.3998    4.1093   53.9300 H       1  ZINC000298969660    0.0400
     44 H44        -6.8719    1.3200   56.1921 H       1  ZINC000298969660    0.4100
     45 H45        -7.5080    3.6161   57.9191 H       1  ZINC000298969660    0.1300
     46 H46        -8.0058    3.8611   60.3162 H       1  ZINC000298969660    0.1300
     47 H47        -8.8517    1.9429   61.6032 H       1  ZINC000298969660    0.1300
     48 H48       -10.7320   -0.5847   62.1210 H       1  ZINC000298969660    0.1000
     49 H49       -11.0822    0.5758   60.8175 H       1  ZINC000298969660    0.1000
     50 H50       -12.7602   -0.1879   59.4748 H       1  ZINC000298969660    0.4100
     51 H51       -12.2107   -1.7819   57.0064 H       1  ZINC000298969660    0.1300
     52 H52       -13.4848   -3.5152   55.8106 H       1  ZINC000298969660    0.1300
     53 H53       -15.2123   -4.8106   56.9914 H       1  ZINC000298969660    0.1200
     54 H54       -15.6709   -4.3774   59.3703 H       1  ZINC000298969660    0.1300
     55 H55       -14.3971   -2.6516   60.5770 H       1  ZINC000298969660    0.1300
     56 H56        -8.7098   -0.4835   58.0889 H       1  ZINC000298969660    0.1500
@<TRIPOS>BOND
     1     1     2    1
     2     1    31    1
     3     1    32    1
     4     1    33    1
     5     2     3    1
     6     2    11   am
     7     3     4    1
     8     3    34    1
     9     3    35    1
    10     4     5    1
    11     4    10    1
    12     4     6    1
    13     6     7    1
    14     6    36    1
    15     6    37    1
    16     7     8    1
    17     7    38    1
    18     7    39    1
    19     8     9    1
    20     8    40    1
    21     8    41    1
    22     9    10    1
    23     9    42    1
    24     9    43    1
    25    11    12    2
    26    11    13   am
    27    13    14    1
    28    13    44    1
    29    14    30   ar
    30    14    15   ar
    31    15    16   ar
    32    15    45    1
    33    16    17   ar
    34    16    46    1
    35    17    18   ar
    36    17    47    1
    37    18    19    1
    38    18    30   ar
    39    19    20    1
    40    20    21    1
    41    20    48    1
    42    20    49    1
    43    21    22    2
    44    21    23   am
    45    23    24    1
    46    23    50    1
    47    24    29   ar
    48    24    25   ar
    49    25    26   ar
    50    25    51    1
    51    26    27   ar
    52    26    52    1
    53    27    28   ar
    54    27    53    1
    55    28    29   ar
    56    28    54    1
    57    29    55    1
    58    30    56    1
@<TRIPOS>SUBSTRUCTURE
     1 ZINC000298969660        1 TEMP              0 ****  ****    0 ROOT


##########                                Name:    ZINC000859608860
##########                DOCK_Rotatable_Bonds:                   8
##########                         Heavy_Atoms:                  24
##########                    Molecular_Weight:             394.268
##########                DOCK_Rotatable_Bonds:                   8
##########                       Formal_Charge:          -0.0200003
##########                     HBond_Acceptors:                   6
##########                        HBond_Donors:                   1
##########                         Heavy_Atoms:                  24
##########                          Grid_Score:          -30.796432
##########                     Grid_vdw_energy:          -30.550304
##########                      Grid_es_energy:           -0.246127
##########           Internal_energy_repulsive:            9.930716

@<TRIPOS>MOLECULE
ZINC000859608860
 44 45 1 0 0
SMALL
USER_CHARGES


@<TRIPOS>ATOM
      1 C1        -10.9959    0.8877   63.8270 C.3     1  ZINC000859608860   -0.1400
      2 C2         -9.7850    1.0535   62.9065 C.3     1  ZINC000859608860   -0.0800
      3 C3        -10.1979    1.8326   61.6561 C.3     1  ZINC000859608860   -0.1400
      4 C4         -8.6847    1.8189   63.6442 C.3     1  ZINC000859608860   -0.1400
      5 C5         -9.2618   -0.3252   62.4988 C.3     1  ZINC000859608860    0.1300
      6 N6        -10.0569   -0.8381   61.3803 N.am    1  ZINC000859608860   -0.7300
      7 C7         -9.4867   -1.0105   60.1713 C.2     1  ZINC000859608860    0.5100
      8 O8         -8.3157   -0.7397   60.0090 O.2     1  ZINC000859608860   -0.5100
      9 C9        -10.3041   -1.5397   59.0212 C.3     1  ZINC000859608860    0.0500
     10 O10       -10.0201   -0.7631   57.8277 O.3     1  ZINC000859608860   -0.3100
     11 C11       -10.4066   -1.2896   56.6486 C.2     1  ZINC000859608860    0.5600
     12 O12       -11.3447   -2.0613   56.6059 O.2     1  ZINC000859608860   -0.5100
     13 C13        -9.6928   -0.9302   55.4130 C.2     1  ZINC000859608860   -0.0400
     14 C14        -8.9966    0.2229   55.1902 C.2     1  ZINC000859608860    0.0500
     15 N15        -8.4991    0.1430   53.9261 N.pl3   1  ZINC000859608860   -0.4100
     16 C16        -7.7182    1.1124   53.2803 C.ar    1  ZINC000859608860    0.1400
     17 C17        -6.7449    1.8052   53.9874 C.ar    1  ZINC000859608860   -0.1200
     18 C18        -5.9768    2.7592   53.3490 C.ar    1  ZINC000859608860   -0.0600
     19 C19        -6.1768    3.0246   52.0059 C.ar    1  ZINC000859608860   -0.1000
     20 Br20       -5.1234    4.3313   51.1350 Br      1  ZINC000859608860   -0.0300
     21 C21        -7.1458    2.3351   51.2989 C.ar    1  ZINC000859608860   -0.0600
     22 C22        -7.9133    1.3768   51.9315 C.ar    1  ZINC000859608860   -0.1200
     23 C23        -8.8969   -1.0488   53.4022 C.2     1  ZINC000859608860    0.2000
     24 N24        -9.6021   -1.6880   54.2898 N.2     1  ZINC000859608860   -0.4300
     25 H25       -11.7799    0.3425   63.3015 H       1  ZINC000859608860    0.0500
     26 H26       -10.7018    0.3327   64.7178 H       1  ZINC000859608860    0.0600
     27 H27       -11.3687    1.8699   64.1175 H       1  ZINC000859608860    0.0600
     28 H28       -10.5706    2.8148   61.9466 H       1  ZINC000859608860    0.0600
     29 H29        -9.3352    1.9508   61.0004 H       1  ZINC000859608860    0.0600
     30 H30       -10.9818    1.2873   61.1306 H       1  ZINC000859608860    0.0500
     31 H31        -8.3906    1.2638   64.5350 H       1  ZINC000859608860    0.0600
     32 H32        -7.8221    1.9370   62.9885 H       1  ZINC000859608860    0.0600
     33 H33        -9.0574    2.8011   63.9347 H       1  ZINC000859608860    0.0600
     34 H34        -8.2183   -0.2425   62.1949 H       1  ZINC000859608860    0.0700
     35 H35        -9.3411   -1.0085   63.3443 H       1  ZINC000859608860    0.0700
     36 H36       -10.9938   -1.0535   61.5098 H       1  ZINC000859608860    0.4000
     37 H37       -10.0486   -2.5845   58.8442 H       1  ZINC000859608860    0.1000
     38 H38       -11.3642   -1.4608   59.2623 H       1  ZINC000859608860    0.1000
     39 H39        -8.8662    1.0409   55.8833 H       1  ZINC000859608860    0.2000
     40 H40        -6.5888    1.5987   55.0359 H       1  ZINC000859608860    0.1400
     41 H41        -5.2199    3.2986   53.8988 H       1  ZINC000859608860    0.1500
     42 H42        -7.3000    2.5441   50.2505 H       1  ZINC000859608860    0.1500
     43 H43        -8.6696    0.8390   51.3792 H       1  ZINC000859608860    0.1500
     44 H44        -8.6617   -1.4078   52.4111 H       1  ZINC000859608860    0.2200
@<TRIPOS>BOND
     1     1     2    1
     2     1    25    1
     3     1    26    1
     4     1    27    1
     5     2     3    1
     6     2     4    1
     7     2     5    1
     8     3    28    1
     9     3    29    1
    10     3    30    1
    11     4    31    1
    12     4    32    1
    13     4    33    1
    14     5     6    1
    15     5    34    1
    16     5    35    1
    17     6     7   am
    18     6    36    1
    19     7     8    2
    20     7     9    1
    21     9    10    1
    22     9    37    1
    23     9    38    1
    24    10    11    1
    25    11    12    2
    26    11    13    1
    27    13    24    1
    28    13    14    2
    29    14    15    1
    30    14    39    1
    31    15    16    1
    32    15    23    1
    33    16    22   ar
    34    16    17   ar
    35    17    18   ar
    36    17    40    1
    37    18    19   ar
    38    18    41    1
    39    19    20    1
    40    19    21   ar
    41    21    22   ar
    42    21    42    1
    43    22    43    1
    44    23    24    2
    45    23    44    1
@<TRIPOS>SUBSTRUCTURE
     1 ZINC000859608860        1 TEMP              0 ****  ****    0 ROOT


##########                                Name:    ZINC000912668252
##########                DOCK_Rotatable_Bonds:                  10
##########                         Heavy_Atoms:                  30
##########                    Molecular_Weight:             411.433
##########                DOCK_Rotatable_Bonds:                  10
##########                       Formal_Charge:           0.0199993
##########                     HBond_Acceptors:                   8
##########                        HBond_Donors:                   2
##########                         Heavy_Atoms:                  30
##########                          Grid_Score:          -30.787096
##########                     Grid_vdw_energy:          -30.412361
##########                      Grid_es_energy:           -0.374735
##########           Internal_energy_repulsive:           13.126595

@<TRIPOS>MOLECULE
ZINC000912668252
 52 54 1 0 0
SMALL
USER_CHARGES


@<TRIPOS>ATOM
      1 C1        -12.2932    0.8273   63.1491 C.3     1  ZINC000912668252   -0.1700
      2 C2        -11.0163    1.6645   63.0525 C.3     1  ZINC000912668252    0.1100
      3 N3         -9.8868    0.8950   63.5800 N.am    1  ZINC000912668252   -0.6100
      4 C4         -9.9353    0.3648   64.9448 C.3     1  ZINC000912668252    0.1000
      5 C5         -8.8997    1.0866   65.8095 C.3     1  ZINC000912668252   -0.1800
      6 C6         -8.8030    0.6748   62.8097 C.2     1  ZINC000912668252    0.5600
      7 O7         -7.8658    0.0365   63.2474 O.2     1  ZINC000912668252   -0.5300
      8 C8         -8.7540    1.2099   61.4322 C.ar    1  ZINC000912668252   -0.1100
      9 C9         -8.4716    2.5594   61.2148 C.ar    1  ZINC000912668252   -0.1100
     10 C10        -8.4260    3.0563   59.9279 C.ar    1  ZINC000912668252   -0.1000
     11 C11        -8.6593    2.2216   58.8512 C.ar    1  ZINC000912668252   -0.1200
     12 C12        -8.9413    0.8763   59.0572 C.ar    1  ZINC000912668252    0.1400
     13 N13        -9.1764    0.0352   57.9634 N.am    1  ZINC000912668252   -0.6700
     14 C14       -10.3537    0.0927   57.3099 C.2     1  ZINC000912668252    0.5200
     15 O15       -11.2095    0.8733   57.6696 O.2     1  ZINC000912668252   -0.4900
     16 C16       -10.6068   -0.8129   56.1323 C.3     1  ZINC000912668252    0.0500
     17 O17        -9.3889   -0.9449   55.3527 O.3     1  ZINC000912668252   -0.3300
     18 C18        -9.4878   -0.7411   54.0235 C.2     1  ZINC000912668252    0.5400
     19 O19       -10.1764   -1.4783   53.3450 O.2     1  ZINC000912668252   -0.4800
     20 C20        -8.7634    0.3717   53.3952 C.2     1  ZINC000912668252    0.0400
     21 C21        -9.2202    1.1248   52.3595 C.2     1  ZINC000912668252   -0.0900
     22 C22        -8.2270    2.0861   52.0544 C.ar    1  ZINC000912668252   -0.1000
     23 C23        -8.1402    3.1101   51.1022 C.ar    1  ZINC000912668252   -0.0900
     24 C24        -7.0234    3.8957   51.0493 C.ar    1  ZINC000912668252    0.0700
     25 F25        -6.9418    4.8826   50.1302 F       1  ZINC000912668252   -0.1400
     26 C26        -5.9702    3.6883   51.9337 C.ar    1  ZINC000912668252   -0.1100
     27 C27        -6.0333    2.6876   52.8775 C.ar    1  ZINC000912668252   -0.1000
     28 C28        -7.1608    1.8746   52.9506 C.ar    1  ZINC000912668252    0.1100
     29 N29        -7.5117    0.8241   53.7664 N.pl3   1  ZINC000912668252   -0.5600
     30 C30        -8.9842    0.3665   60.3452 C.ar    1  ZINC000912668252   -0.0700
     31 H31       -13.1337    1.3998   62.7565 H       1  ZINC000912668252    0.0700
     32 H32       -12.1732   -0.0869   62.5678 H       1  ZINC000912668252    0.0600
     33 H33       -12.4827    0.5725   64.1919 H       1  ZINC000912668252    0.0600
     34 H34       -10.8270    1.9192   62.0097 H       1  ZINC000912668252    0.0800
     35 H35       -11.1364    2.5787   63.6338 H       1  ZINC000912668252    0.0900
     36 H36       -10.9301    0.5232   65.3611 H       1  ZINC000912668252    0.0900
     37 H37        -9.7142   -0.7024   64.9281 H       1  ZINC000912668252    0.0800
     38 H38        -7.9183    0.6403   65.6494 H       1  ZINC000912668252    0.0600
     39 H39        -8.8686    2.1410   65.5349 H       1  ZINC000912668252    0.0700
     40 H40        -9.1746    0.9927   66.8601 H       1  ZINC000912668252    0.0700
     41 H41        -8.2891    3.2149   62.0535 H       1  ZINC000912668252    0.1400
     42 H42        -8.2077    4.1008   59.7618 H       1  ZINC000912668252    0.1400
     43 H43        -8.6226    2.6162   57.8466 H       1  ZINC000912668252    0.1300
     44 H44        -8.4920   -0.5890   57.6758 H       1  ZINC000912668252    0.4200
     45 H45       -10.9180   -1.7947   56.4892 H       1  ZINC000912668252    0.1100
     46 H46       -11.3929   -0.3870   55.5088 H       1  ZINC000912668252    0.1100
     47 H47       -10.1702    1.0097   51.8589 H       1  ZINC000912668252    0.1700
     48 H48        -8.9535    3.2779   50.4117 H       1  ZINC000912668252    0.1400
     49 H49        -5.0944    4.3177   51.8794 H       1  ZINC000912668252    0.1400
     50 H50        -5.2101    2.5339   53.5594 H       1  ZINC000912668252    0.1400
     51 H51        -6.9690    0.4598   54.4831 H       1  ZINC000912668252    0.4300
     52 H52        -9.2032   -0.6786   60.5073 H       1  ZINC000912668252    0.1400
@<TRIPOS>BOND
     1     1     2    1
     2     1    31    1
     3     1    32    1
     4     1    33    1
     5     2     3    1
     6     2    34    1
     7     2    35    1
     8     3     4    1
     9     3     6   am
    10     4     5    1
    11     4    36    1
    12     4    37    1
    13     5    38    1
    14     5    39    1
    15     5    40    1
    16     6     7    2
    17     6     8    1
    18     8    30   ar
    19     8     9   ar
    20     9    10   ar
    21     9    41    1
    22    10    11   ar
    23    10    42    1
    24    11    12   ar
    25    11    43    1
    26    12    13    1
    27    12    30   ar
    28    13    14   am
    29    13    44    1
    30    14    15    2
    31    14    16    1
    32    16    17    1
    33    16    45    1
    34    16    46    1
    35    17    18    1
    36    18    19    2
    37    18    20    1
    38    20    29    1
    39    20    21    2
    40    21    22    1
    41    21    47    1
    42    22    28   ar
    43    22    23   ar
    44    23    24   ar
    45    23    48    1
    46    24    25    1
    47    24    26   ar
    48    26    27   ar
    49    26    49    1
    50    27    28   ar
    51    27    50    1
    52    28    29    1
    53    29    51    1
    54    30    52    1
@<TRIPOS>SUBSTRUCTURE
     1 ZINC000912668252        1 TEMP              0 ****  ****    0 ROOT


##########                                Name:    ZINC000788423111
##########                DOCK_Rotatable_Bonds:                   7
##########                         Heavy_Atoms:                  23
##########                    Molecular_Weight:             399.243
##########                DOCK_Rotatable_Bonds:                   7
##########                       Formal_Charge:         1.04308e-07
##########                     HBond_Acceptors:                   8
##########                        HBond_Donors:                   1
##########                         Heavy_Atoms:                  23
##########                          Grid_Score:          -30.783915
##########                     Grid_vdw_energy:          -28.740971
##########                      Grid_es_energy:           -2.042944
##########           Internal_energy_repulsive:            8.326516

@<TRIPOS>MOLECULE
ZINC000788423111
 35 37 1 0 0
SMALL
USER_CHARGES


@<TRIPOS>ATOM
      1 O1         -8.2150   -1.3442   59.8955 O.3     1  ZINC000788423111   -0.5400
      2 C2         -8.7709   -0.3101   60.7103 C.3     1  ZINC000788423111    0.1000
      3 H3         -8.1860   -0.2143   61.6251 H       1  ZINC000788423111    0.1300
      4 C4        -10.2172   -0.6619   61.0643 C.3     1  ZINC000788423111    0.0300
      5 O5        -10.5472   -1.9364   60.5083 O.3     1  ZINC000788423111   -0.2900
      6 C6        -11.8329   -2.1209   60.1089 C.ar    1  ZINC000788423111    0.1700
      7 C7        -12.8748   -1.5938   60.8569 C.ar    1  ZINC000788423111   -0.2400
      8 C8        -14.1834   -1.7831   60.4483 C.ar    1  ZINC000788423111    0.1500
      9 F9        -15.1993   -1.2700   61.1763 F       1  ZINC000788423111   -0.1300
     10 C10       -14.4518   -2.4979   59.2933 C.ar    1  ZINC000788423111   -0.1600
     11 C11       -13.4129   -3.0244   58.5467 C.ar    1  ZINC000788423111   -0.0300
     12 Br12      -13.7828   -4.0002   56.9697 Br      1  ZINC000788423111   -0.0200
     13 C13       -12.1045   -2.8324   58.9489 C.ar    1  ZINC000788423111   -0.1300
     14 C14        -8.7409    1.0142   59.9447 C.3     1  ZINC000788423111    0.1000
     15 N15        -8.9445    0.7575   58.5169 N.pl3   1  ZINC000788423111   -0.1300
     16 N16        -9.8768    0.0232   58.0183 N.2     1  ZINC000788423111   -0.0500
     17 N17        -9.7627    0.0147   56.7335 N.2     1  ZINC000788423111   -0.2600
     18 C18        -8.7069    0.7825   56.4226 C.2     1  ZINC000788423111    0.2400
     19 C19        -8.1915    1.0696   55.0662 C.2     1  ZINC000788423111   -0.1300
     20 C20        -7.1471    1.8729   54.7846 C.2     1  ZINC000788423111   -0.0800
     21 C21        -6.8523    1.9862   53.4414 C.2     1  ZINC000788423111   -0.1400
     22 C22        -7.6449    1.2841   52.6268 C.2     1  ZINC000788423111   -0.2000
     23 S23        -8.8424    0.4089   53.5716 S.3     1  ZINC000788423111    0.1700
     24 N24        -8.2217    1.2361   57.5632 N.2     1  ZINC000788423111   -0.2900
     25 H25        -7.2512   -1.4069   59.9429 H       1  ZINC000788423111    0.3800
     26 H26       -10.3274   -0.6988   62.1480 H       1  ZINC000788423111    0.0900
     27 H27       -10.8858    0.0963   60.6567 H       1  ZINC000788423111    0.0800
     28 H28       -12.6652   -1.0363   61.7579 H       1  ZINC000788423111    0.1500
     29 H29       -15.4733   -2.6448   58.9750 H       1  ZINC000788423111    0.1500
     30 H30       -11.2941   -3.2435   58.3653 H       1  ZINC000788423111    0.1500
     31 H31        -9.5335    1.6652   60.3135 H       1  ZINC000788423111    0.1300
     32 H32        -7.7752    1.4977   60.0929 H       1  ZINC000788423111    0.1300
     33 H33        -6.5854    2.3878   55.5498 H       1  ZINC000788423111    0.1500
     34 H34        -6.0407    2.5977   53.0756 H       1  ZINC000788423111    0.1500
     35 H35        -7.5601    1.2547   51.5506 H       1  ZINC000788423111    0.1700
@<TRIPOS>BOND
     1     1     2    1
     2     1    25    1
     3     2     3    1
     4     2     4    1
     5     2    14    1
     6     4     5    1
     7     4    26    1
     8     4    27    1
     9     5     6    1
    10     6    13   ar
    11     6     7   ar
    12     7     8   ar
    13     7    28    1
    14     8     9    1
    15     8    10   ar
    16    10    11   ar
    17    10    29    1
    18    11    12    1
    19    11    13   ar
    20    13    30    1
    21    14    15    1
    22    14    31    1
    23    14    32    1
    24    15    24    1
    25    15    16    1
    26    16    17    2
    27    17    18    1
    28    18    19    1
    29    18    24    2
    30    19    23    1
    31    19    20    2
    32    20    21    1
    33    20    33    1
    34    21    22    2
    35    21    34    1
    36    22    23    1
    37    22    35    1
@<TRIPOS>SUBSTRUCTURE
     1 ZINC000788423111        1 TEMP              0 ****  ****    0 ROOT


##########                                Name:    ZINC000863216249
##########                DOCK_Rotatable_Bonds:                   5
##########                         Heavy_Atoms:                  23
##########                    Molecular_Weight:             396.351
##########                DOCK_Rotatable_Bonds:                   5
##########                       Formal_Charge:         -0.00999944
##########                     HBond_Acceptors:                   5
##########                        HBond_Donors:                   1
##########                         Heavy_Atoms:                  23
##########                          Grid_Score:          -30.778782
##########                     Grid_vdw_energy:          -31.015108
##########                      Grid_es_energy:            0.236326
##########           Internal_energy_repulsive:           26.880497

@<TRIPOS>MOLECULE
ZINC000863216249
 45 48 1 0 0
SMALL
USER_CHARGES


@<TRIPOS>ATOM
      1 S1         -8.0856    2.9846   60.0231 S.2     1  ZINC000863216249   -0.5900
      2 C2         -8.8231    1.6251   59.2894 C.2     1  ZINC000863216249    0.5600
      3 N3         -9.4624    0.7134   60.0488 N.am    1  ZINC000863216249   -0.6800
      4 C4         -9.5210    0.8828   61.5027 C.3     1  ZINC000863216249    0.1200
      5 C5         -9.5506   -0.4911   62.1754 C.3     1  ZINC000863216249    0.0400
      6 N6         -9.2968   -0.3374   63.6141 N.3     1  ZINC000863216249   -0.5300
      7 C7        -10.1291    0.7318   64.1847 C.3     1  ZINC000863216249    0.0000
      8 C8         -9.8774    0.8176   65.6924 C.3     1  ZINC000863216249    0.0600
      9 O9         -8.4831    1.0336   65.9263 O.3     1  ZINC000863216249   -0.3800
     10 C10        -7.6432    0.0108   65.3845 C.3     1  ZINC000863216249    0.0600
     11 C11        -7.8723   -0.0832   63.8737 C.3     1  ZINC000863216249    0.0200
     12 N12        -8.7692    1.4692   57.9517 N.am    1  ZINC000863216249   -0.5100
     13 C13        -8.1049    2.3911   57.0234 C.3     1  ZINC000863216249    0.1200
     14 C14        -8.3224    1.7783   55.6363 C.3     1  ZINC000863216249   -0.1100
     15 C15        -8.5560    2.6481   54.4073 C.3     1  ZINC000863216249   -0.1500
     16 C16        -7.2536    1.8560   54.5530 C.3     1  ZINC000863216249   -0.1500
     17 C17        -9.1149    0.5200   55.8795 C.ar    1  ZINC000863216249   -0.0700
     18 C18        -9.5999   -0.4367   55.0088 C.ar    1  ZINC000863216249   -0.0800
     19 C19       -10.3123   -1.5190   55.4906 C.ar    1  ZINC000863216249   -0.1000
     20 C20       -10.5397   -1.6432   56.8496 C.ar    1  ZINC000863216249   -0.0700
     21 Br21      -11.5134   -3.1231   57.5112 Br      1  ZINC000863216249   -0.0400
     22 C22       -10.0576   -0.6906   57.7234 C.ar    1  ZINC000863216249   -0.0900
     23 C23        -9.3331    0.4019   57.2452 C.ar    1  ZINC000863216249    0.1400
     24 H24        -9.8836   -0.0549   59.6325 H       1  ZINC000863216249    0.4000
     25 H25        -8.6431    1.4337   61.8401 H       1  ZINC000863216249    0.0900
     26 H26       -10.4216    1.4366   61.7680 H       1  ZINC000863216249    0.1000
     27 H27       -10.5289   -0.9479   62.0258 H       1  ZINC000863216249    0.0900
     28 H28        -8.7817   -1.1270   61.7367 H       1  ZINC000863216249    0.0400
     29 H29        -9.8709    1.6823   63.7179 H       1  ZINC000863216249    0.0500
     30 H30       -11.1808    0.5103   64.0033 H       1  ZINC000863216249    0.1000
     31 H31       -10.4492    1.6460   66.1103 H       1  ZINC000863216249    0.1000
     32 H32       -10.1859   -0.1142   66.1665 H       1  ZINC000863216249    0.0600
     33 H33        -6.5992    0.2557   65.5798 H       1  ZINC000863216249    0.1000
     34 H34        -7.8867   -0.9444   65.8496 H       1  ZINC000863216249    0.0600
     35 H35        -7.2766   -0.8995   63.4653 H       1  ZINC000863216249    0.0900
     36 H36        -7.5780    0.8543   63.4019 H       1  ZINC000863216249    0.0500
     37 H37        -8.5626    3.3788   57.0774 H       1  ZINC000863216249    0.0900
     38 H38        -7.0400    2.4529   57.2477 H       1  ZINC000863216249    0.0900
     39 H39        -9.2795    2.2966   53.6717 H       1  ZINC000863216249    0.1100
     40 H40        -8.5052    3.7291   54.5383 H       1  ZINC000863216249    0.1100
     41 H41        -6.3464    2.4160   54.7800 H       1  ZINC000863216249    0.1100
     42 H42        -7.1206    0.9836   53.9134 H       1  ZINC000863216249    0.1100
     43 H43        -9.4222   -0.3386   53.9481 H       1  ZINC000863216249    0.1400
     44 H44       -10.6907   -2.2654   54.8079 H       1  ZINC000863216249    0.1400
     45 H45       -10.2386   -0.7930   58.7833 H       1  ZINC000863216249    0.1900
@<TRIPOS>BOND
     1     1     2    2
     2     2     3   am
     3     2    12   am
     4     3     4    1
     5     3    24    1
     6     4     5    1
     7     4    25    1
     8     4    26    1
     9     5     6    1
    10     5    27    1
    11     5    28    1
    12     6    11    1
    13     6     7    1
    14     7     8    1
    15     7    29    1
    16     7    30    1
    17     8     9    1
    18     8    31    1
    19     8    32    1
    20     9    10    1
    21    10    11    1
    22    10    33    1
    23    10    34    1
    24    11    35    1
    25    11    36    1
    26    12    23    1
    27    12    13    1
    28    13    14    1
    29    13    37    1
    30    13    38    1
    31    14    16    1
    32    14    15    1
    33    14    17    1
    34    15    16    1
    35    15    39    1
    36    15    40    1
    37    16    41    1
    38    16    42    1
    39    17    23   ar
    40    17    18   ar
    41    18    19   ar
    42    18    43    1
    43    19    20   ar
    44    19    44    1
    45    20    21    1
    46    20    22   ar
    47    22    23   ar
    48    22    45    1
@<TRIPOS>SUBSTRUCTURE
     1 ZINC000863216249        1 TEMP              0 ****  ****    0 ROOT


##########                                Name:    ZINC001707804910
##########                DOCK_Rotatable_Bonds:                   4
##########                         Heavy_Atoms:                  26
##########                    Molecular_Weight:             358.403
##########                DOCK_Rotatable_Bonds:                   4
##########                       Formal_Charge:          -0.0399996
##########                     HBond_Acceptors:                  10
##########                        HBond_Donors:                   0
##########                         Heavy_Atoms:                  26
##########                          Grid_Score:          -30.776159
##########                     Grid_vdw_energy:          -30.509832
##########                      Grid_es_energy:           -0.266327
##########           Internal_energy_repulsive:            6.452468

@<TRIPOS>MOLECULE
ZINC001707804910
 48 51 1 0 0
SMALL
USER_CHARGES


@<TRIPOS>ATOM
      1 C1         -3.4849    4.3651   52.8754 C.3     1  ZINC001707804910   -0.0700
      2 C2         -2.3681    4.1043   53.8531 C.2     1  ZINC001707804910    0.0700
      3 N3         -2.5106    3.7239   55.0968 N.2     1  ZINC001707804910   -0.2800
      4 N4         -1.2360    3.5919   55.6629 N.pl3   1  ZINC001707804910   -0.3700
      5 C5         -0.9421    3.1848   57.0391 C.3     1  ZINC001707804910    0.0900
      6 C6         -0.3266    3.9059   54.7165 C.2     1  ZINC001707804910    0.0500
      7 C7          1.1707    3.9006   54.8864 C.3     1  ZINC001707804910    0.1800
      8 N8          1.8081    4.2389   53.6116 N.pl3   1  ZINC001707804910   -0.4600
      9 C9          1.9700    5.4861   53.0748 C.2     1  ZINC001707804910    0.1900
     10 C10         1.5220    6.7876   53.6885 C.3     1  ZINC001707804910   -0.0700
     11 N11         2.5840    5.3408   51.9349 N.2     1  ZINC001707804910   -0.2800
     12 N12         2.8193    4.0962   51.7165 N.2     1  ZINC001707804910   -0.3000
     13 C13         2.3688    3.3754   52.7161 C.2     1  ZINC001707804910    0.3500
     14 N14         2.4411    1.9966   52.8357 N.3     1  ZINC001707804910   -0.4600
     15 C15         3.8290    1.5575   53.0404 C.3     1  ZINC001707804910    0.0200
     16 C16         3.8557    0.0382   53.2268 C.3     1  ZINC001707804910    0.0700
     17 O17         3.2520   -0.5870   52.0910 O.3     1  ZINC001707804910   -0.3600
     18 C18         1.8995   -0.1827   51.8624 C.3     1  ZINC001707804910    0.2000
     19 H19         1.2878   -0.4553   52.7224 H       1  ZINC001707804910    0.1000
     20 C20         1.3701   -0.8702   50.6302 C.2     1  ZINC001707804910    0.1600
     21 N21         2.0710   -1.2591   49.6033 N.2     1  ZINC001707804910   -0.2500
     22 N22         1.2926   -1.8082   48.7383 N.2     1  ZINC001707804910   -0.2900
     23 C23         0.0687   -1.7881   49.1840 C.2     1  ZINC001707804910    0.1700
     24 C24        -1.1468   -2.3303   48.4771 C.3     1  ZINC001707804910   -0.0600
     25 O25         0.0896   -1.1996   50.3917 O.3     1  ZINC001707804910   -0.2200
     26 C26         1.8529    1.3345   51.6623 C.3     1  ZINC001707804910    0.0400
     27 C27        -1.0001    4.2212   53.5859 C.2     1  ZINC001707804910   -0.2300
     28 H28        -3.7272    3.4435   52.3464 H       1  ZINC001707804910    0.0800
     29 H29        -4.3647    4.7169   53.4142 H       1  ZINC001707804910    0.0700
     30 H30        -3.1704    5.1236   52.1586 H       1  ZINC001707804910    0.0800
     31 H31        -0.9445    2.0967   57.1046 H       1  ZINC001707804910    0.0800
     32 H32         0.0380    3.5639   57.3288 H       1  ZINC001707804910    0.0900
     33 H33        -1.7009    3.5907   57.7080 H       1  ZINC001707804910    0.0900
     34 H34         1.4534    4.6354   55.6404 H       1  ZINC001707804910    0.1100
     35 H35         1.4968    2.9102   55.2042 H       1  ZINC001707804910    0.1200
     36 H36         2.2766    7.1353   54.3942 H       1  ZINC001707804910    0.0900
     37 H37         1.3879    7.5321   52.9039 H       1  ZINC001707804910    0.1000
     38 H38         0.5776    6.6367   54.2115 H       1  ZINC001707804910    0.0700
     39 H39         4.4284    1.8283   52.1712 H       1  ZINC001707804910    0.0700
     40 H40         4.2362    2.0405   53.9288 H       1  ZINC001707804910    0.0900
     41 H41         4.8880   -0.2987   53.3218 H       1  ZINC001707804910    0.1200
     42 H42         3.3010   -0.2280   54.1265 H       1  ZINC001707804910    0.0700
     43 H43        -1.2919   -3.3748   48.7532 H       1  ZINC001707804910    0.1000
     44 H44        -2.0241   -1.7525   48.7677 H       1  ZINC001707804910    0.1000
     45 H45        -1.0036   -2.2561   47.3992 H       1  ZINC001707804910    0.1100
     46 H46         0.8176    1.6544   51.5446 H       1  ZINC001707804910    0.1000
     47 H47         2.4207    1.6016   50.7709 H       1  ZINC001707804910    0.0800
     48 H48        -0.5594    4.5170   52.6454 H       1  ZINC001707804910    0.1500
@<TRIPOS>BOND
     1     1     2    1
     2     1    28    1
     3     1    29    1
     4     1    30    1
     5     2    27    1
     6     2     3    2
     7     3     4    1
     8     4     5    1
     9     4     6    1
    10     5    31    1
    11     5    32    1
    12     5    33    1
    13     6     7    1
    14     6    27    2
    15     7     8    1
    16     7    34    1
    17     7    35    1
    18     8    13    1
    19     8     9    1
    20     9    10    1
    21     9    11    2
    22    10    36    1
    23    10    37    1
    24    10    38    1
    25    11    12    1
    26    12    13    2
    27    13    14    1
    28    14    26    1
    29    14    15    1
    30    15    16    1
    31    15    39    1
    32    15    40    1
    33    16    17    1
    34    16    41    1
    35    16    42    1
    36    17    18    1
    37    18    19    1
    38    18    20    1
    39    18    26    1
    40    20    25    1
    41    20    21    2
    42    21    22    1
    43    22    23    2
    44    23    24    1
    45    23    25    1
    46    24    43    1
    47    24    44    1
    48    24    45    1
    49    26    46    1
    50    26    47    1
    51    27    48    1
@<TRIPOS>SUBSTRUCTURE
     1 ZINC001707804910        1 TEMP              0 ****  ****    0 ROOT


##########                                Name:    ZINC000937331732
##########                DOCK_Rotatable_Bonds:                   6
##########                         Heavy_Atoms:                  24
##########                    Molecular_Weight:              333.35
##########                DOCK_Rotatable_Bonds:                   6
##########                       Formal_Charge:          -0.0299999
##########                     HBond_Acceptors:                  10
##########                        HBond_Donors:                   1
##########                         Heavy_Atoms:                  24
##########                          Grid_Score:          -30.767326
##########                     Grid_vdw_energy:          -28.987185
##########                      Grid_es_energy:           -1.780143
##########           Internal_energy_repulsive:           18.459616

@<TRIPOS>MOLECULE
ZINC000937331732
 43 45 1 0 0
SMALL
USER_CHARGES


@<TRIPOS>ATOM
      1 C1         -8.4148   -0.6941   59.7878 C.3     1  ZINC000937331732    0.0600
      2 N2         -9.3530    0.4292   59.8545 N.am    1  ZINC000937331732   -0.6100
      3 C3        -10.2120    0.5292   60.8881 C.2     1  ZINC000937331732    0.5000
      4 O4        -10.9877    1.4599   60.9442 O.2     1  ZINC000937331732   -0.5200
      5 C5        -10.2088   -0.5154   61.9744 C.3     1  ZINC000937331732    0.1500
      6 N6         -9.3781   -0.0567   63.0905 N.am    1  ZINC000937331732   -0.4400
      7 N7         -7.9904   -0.2129   63.2124 N.2     1  ZINC000937331732   -0.2800
      8 C8         -7.6218    0.3211   64.3319 C.2     1  ZINC000937331732    0.2600
      9 N9         -8.7284    0.8324   64.9650 N.am    1  ZINC000937331732   -0.5600
     10 C10        -8.7354    1.5189   66.2591 C.3     1  ZINC000937331732    0.1000
     11 C11        -9.8060    0.5997   64.1892 C.2     1  ZINC000937331732    0.6500
     12 O12       -10.9557    0.9166   64.4378 O.2     1  ZINC000937331732   -0.5500
     13 C13        -9.3573    1.4437   58.7976 C.3     1  ZINC000937331732    0.1300
     14 H14       -10.2174    2.1050   58.9033 H       1  ZINC000937331732    0.1200
     15 C15        -8.0354    2.2560   58.8109 C.3     1  ZINC000937331732   -0.1500
     16 C16        -7.9397    2.7185   57.3356 C.3     1  ZINC000937331732    0.1000
     17 N17        -8.4528    1.5816   56.5497 N.am    1  ZINC000937331732   -0.6000
     18 C18        -8.1558    1.3195   55.2615 C.2     1  ZINC000937331732    0.6200
     19 O19        -8.6401    0.3493   54.7111 O.2     1  ZINC000937331732   -0.5400
     20 C20        -7.2438    2.2089   54.5196 C.2     1  ZINC000937331732    0.1400
     21 N21        -7.1872    3.5194   54.6282 N.2     1  ZINC000937331732   -0.4400
     22 C22        -6.2468    3.9838   53.8087 C.2     1  ZINC000937331732   -0.0300
     23 C23        -5.6892    2.9326   53.1595 C.2     1  ZINC000937331732   -0.0200
     24 N24        -6.3079    1.8138   53.6055 N.pl3   1  ZINC000937331732   -0.5200
     25 C25        -9.3464    0.7805   57.4042 C.3     1  ZINC000937331732    0.1000
     26 H26        -8.8759   -1.5210   59.2477 H       1  ZINC000937331732    0.0700
     27 H27        -7.5093   -0.3808   59.2682 H       1  ZINC000937331732    0.0800
     28 H28        -8.1613   -1.0162   60.7978 H       1  ZINC000937331732    0.0800
     29 H29       -11.2282   -0.6795   62.3237 H       1  ZINC000937331732    0.1300
     30 H30        -9.8051   -1.4480   61.5804 H       1  ZINC000937331732    0.1300
     31 H31        -6.6097    0.3585   64.7073 H       1  ZINC000937331732    0.2300
     32 H32        -7.7196    1.5650   66.6516 H       1  ZINC000937331732    0.1000
     33 H33        -9.1219    2.5302   66.1318 H       1  ZINC000937331732    0.0800
     34 H34        -9.3700    0.9726   66.9569 H       1  ZINC000937331732    0.0800
     35 H35        -8.1085    3.1101   59.4842 H       1  ZINC000937331732    0.0900
     36 H36        -7.1899    1.6218   59.0773 H       1  ZINC000937331732    0.0800
     37 H37        -8.5582    3.6013   57.1739 H       1  ZINC000937331732    0.0800
     38 H38        -6.9033    2.9264   57.0697 H       1  ZINC000937331732    0.1100
     39 H39        -5.9746    5.0213   53.6825 H       1  ZINC000937331732    0.1800
     40 H40        -4.8974    2.9785   52.4265 H       1  ZINC000937331732    0.1900
     41 H41        -6.1250    0.9035   53.3248 H       1  ZINC000937331732    0.4300
     42 H42        -8.9677   -0.2384   57.4840 H       1  ZINC000937331732    0.0800
     43 H43       -10.3521    0.7726   56.9840 H       1  ZINC000937331732    0.0800
@<TRIPOS>BOND
     1     1     2    1
     2     1    26    1
     3     1    27    1
     4     1    28    1
     5     2     3   am
     6     2    13    1
     7     3     4    2
     8     3     5    1
     9     5     6    1
    10     5    29    1
    11     5    30    1
    12     6    11   am
    13     6     7    1
    14     7     8    2
    15     8     9    1
    16     8    31    1
    17     9    10    1
    18     9    11   am
    19    10    32    1
    20    10    33    1
    21    10    34    1
    22    11    12    2
    23    13    14    1
    24    13    25    1
    25    13    15    1
    26    15    16    1
    27    15    35    1
    28    15    36    1
    29    16    17    1
    30    16    37    1
    31    16    38    1
    32    17    18   am
    33    17    25    1
    34    18    19    2
    35    18    20    1
    36    20    24    1
    37    20    21    2
    38    21    22    1
    39    22    23    2
    40    22    39    1
    41    23    24    1
    42    23    40    1
    43    24    41    1
    44    25    42    1
    45    25    43    1
@<TRIPOS>SUBSTRUCTURE
     1 ZINC000937331732        1 TEMP              0 ****  ****    0 ROOT


##########                                Name:    ZINC000031496632
##########                DOCK_Rotatable_Bonds:                   8
##########                         Heavy_Atoms:                  30
##########                    Molecular_Weight:             423.539
##########                DOCK_Rotatable_Bonds:                   8
##########                       Formal_Charge:          -0.0100009
##########                     HBond_Acceptors:                   8
##########                        HBond_Donors:                   1
##########                         Heavy_Atoms:                  30
##########                          Grid_Score:          -30.737883
##########                     Grid_vdw_energy:          -27.488924
##########                      Grid_es_energy:           -3.248958
##########           Internal_energy_repulsive:           10.624516

@<TRIPOS>MOLECULE
ZINC000031496632
 55 58 1 0 0
SMALL
USER_CHARGES


@<TRIPOS>ATOM
      1 C1        -10.0296   -0.5495   61.3962 C.3     1  ZINC000031496632   -0.1600
      2 C2        -10.6294    0.7571   60.8731 C.3     1  ZINC000031496632    0.1600
      3 C3        -11.5097    1.3838   61.9563 C.3     1  ZINC000031496632   -0.1600
      4 N4         -9.5504    1.6845   60.5238 N.pl3   1  ZINC000031496632   -0.3900
      5 N5         -9.0153    2.6602   61.3705 N.2     1  ZINC000031496632   -0.2300
      6 C6         -8.0715    3.3157   60.7576 C.2     1  ZINC000031496632    0.0800
      7 C7         -7.9482    2.7621   59.4136 C.ar    1  ZINC000031496632   -0.2100
      8 C8         -7.1297    3.0443   58.3140 C.ar    1  ZINC000031496632    0.0100
      9 C9         -7.3007    2.2889   57.1644 C.ar    1  ZINC000031496632    0.0500
     10 N10        -6.5073    2.5299   56.0352 N.am    1  ZINC000031496632   -0.6600
     11 C11        -6.8806    3.4612   55.1355 C.2     1  ZINC000031496632    0.5500
     12 O12        -7.9065    4.0926   55.3038 O.2     1  ZINC000031496632   -0.4900
     13 C13        -6.0461    3.7146   53.9476 C.ar    1  ZINC000031496632   -0.1300
     14 C14        -4.7733    4.2732   54.0890 C.ar    1  ZINC000031496632   -0.0600
     15 C15        -3.9979    4.5078   52.9744 C.ar    1  ZINC000031496632   -0.1400
     16 C16        -4.4734    4.1930   51.7111 C.ar    1  ZINC000031496632   -0.0600
     17 C17        -5.7281    3.6414   51.5540 C.ar    1  ZINC000031496632   -0.1500
     18 C18        -6.5228    3.3910   52.6665 C.ar    1  ZINC000031496632   -0.0600
     19 S19        -8.1256    2.6860   52.4697 S.3     1  ZINC000031496632    0.0900
     20 C20        -7.9025    0.9903   53.0742 C.3     1  ZINC000031496632   -0.2000
     21 C21        -9.0354    0.1279   52.5802 C.2     1  ZINC000031496632    0.5500
     22 O22        -8.8169   -0.7668   51.7911 O.2     1  ZINC000031496632   -0.5200
     23 N23       -10.2914    0.3511   53.0152 N.am    1  ZINC000031496632   -0.6200
     24 C24       -10.6969    1.4016   53.9604 C.3     1  ZINC000031496632    0.1000
     25 C25       -12.2174    1.2575   54.1809 C.3     1  ZINC000031496632   -0.1300
     26 C26       -12.4874   -0.2186   53.7866 C.3     1  ZINC000031496632   -0.1300
     27 C27       -11.4871   -0.4139   52.6170 C.3     1  ZINC000031496632    0.1000
     28 C28        -8.2695    1.2870   57.1431 C.ar    1  ZINC000031496632    0.1600
     29 N29        -9.0264    1.0415   58.1896 N.ar    1  ZINC000031496632   -0.4900
     30 C30        -8.9018    1.7290   59.3179 C.ar    1  ZINC000031496632    0.3000
     31 H31       -10.8323   -1.2395   61.6562 H       1  ZINC000031496632    0.0800
     32 H32        -9.4024   -0.9960   60.6246 H       1  ZINC000031496632    0.0600
     33 H33        -9.4264   -0.3442   62.2806 H       1  ZINC000031496632    0.0700
     34 H34       -11.2325    0.5516   59.9887 H       1  ZINC000031496632    0.1100
     35 H35       -12.3124    0.6938   62.2163 H       1  ZINC000031496632    0.0800
     36 H36       -10.9066    1.5892   62.8408 H       1  ZINC000031496632    0.0700
     37 H37       -11.9370    2.3147   61.5838 H       1  ZINC000031496632    0.0600
     38 H38        -7.4858    4.1241   61.1700 H       1  ZINC000031496632    0.2000
     39 H39        -6.3874    3.8275   58.3596 H       1  ZINC000031496632    0.1500
     40 H40        -5.6892    2.0263   55.9009 H       1  ZINC000031496632    0.4100
     41 H41        -4.3977    4.5212   55.0706 H       1  ZINC000031496632    0.1300
     42 H42        -3.0142    4.9396   53.0858 H       1  ZINC000031496632    0.1300
     43 H43        -3.8577    4.3812   50.8439 H       1  ZINC000031496632    0.1300
     44 H44        -6.0913    3.3997   50.5661 H       1  ZINC000031496632    0.1300
     45 H45        -6.9567    0.5943   52.7047 H       1  ZINC000031496632    0.1100
     46 H46        -7.8951    0.9912   54.1642 H       1  ZINC000031496632    0.1100
     47 H47       -10.1711    1.2720   54.9065 H       1  ZINC000031496632    0.0700
     48 H48       -10.4742    2.3830   53.5417 H       1  ZINC000031496632    0.0700
     49 H49       -12.4737    1.4306   55.2261 H       1  ZINC000031496632    0.0900
     50 H50       -12.7675    1.9374   53.5302 H       1  ZINC000031496632    0.0800
     51 H51       -12.2624   -0.8914   54.6141 H       1  ZINC000031496632    0.0800
     52 H52       -13.5145   -0.3503   53.4461 H       1  ZINC000031496632    0.0900
     53 H53       -11.9049   -0.0197   51.6907 H       1  ZINC000031496632    0.0700
     54 H54       -11.2379   -1.4688   52.5032 H       1  ZINC000031496632    0.0800
     55 H55        -8.4015    0.6994   56.2467 H       1  ZINC000031496632    0.1700
@<TRIPOS>BOND
     1     1     2    1
     2     1    31    1
     3     1    32    1
     4     1    33    1
     5     2     3    1
     6     2     4    1
     7     2    34    1
     8     3    35    1
     9     3    36    1
    10     3    37    1
    11     4    30    1
    12     4     5    1
    13     5     6    2
    14     6     7    1
    15     6    38    1
    16     7    30   ar
    17     7     8   ar
    18     8     9   ar
    19     8    39    1
    20     9    10    1
    21     9    28   ar
    22    10    11   am
    23    10    40    1
    24    11    12    2
    25    11    13    1
    26    13    18   ar
    27    13    14   ar
    28    14    15   ar
    29    14    41    1
    30    15    16   ar
    31    15    42    1
    32    16    17   ar
    33    16    43    1
    34    17    18   ar
    35    17    44    1
    36    18    19    1
    37    19    20    1
    38    20    21    1
    39    20    45    1
    40    20    46    1
    41    21    22    2
    42    21    23   am
    43    23    27    1
    44    23    24    1
    45    24    25    1
    46    24    47    1
    47    24    48    1
    48    25    26    1
    49    25    49    1
    50    25    50    1
    51    26    27    1
    52    26    51    1
    53    26    52    1
    54    27    53    1
    55    27    54    1
    56    28    29   ar
    57    28    55    1
    58    29    30   ar
@<TRIPOS>SUBSTRUCTURE
     1 ZINC000031496632        1 TEMP              0 ****  ****    0 ROOT


##########                                Name:    ZINC001119787528
##########                DOCK_Rotatable_Bonds:                   6
##########                         Heavy_Atoms:                  27
##########                    Molecular_Weight:             362.434
##########                DOCK_Rotatable_Bonds:                   6
##########                       Formal_Charge:          -0.0199998
##########                     HBond_Acceptors:                   7
##########                        HBond_Donors:                   1
##########                         Heavy_Atoms:                  27
##########                          Grid_Score:          -30.712776
##########                     Grid_vdw_energy:          -29.504295
##########                      Grid_es_energy:           -1.208481
##########           Internal_energy_repulsive:           15.037136

@<TRIPOS>MOLECULE
ZINC001119787528
 49 52 1 0 0
SMALL
USER_CHARGES


@<TRIPOS>ATOM
      1 C1         -9.5873    0.1909   65.2548 C.3     1  ZINC001119787528   -0.1700
      2 C2         -8.6360   -0.1341   64.1014 C.3     1  ZINC001119787528    0.1000
      3 N3         -8.8217    0.8427   63.0253 N.pl3   1  ZINC001119787528   -0.4500
      4 C4         -8.5171    2.1600   63.0736 C.2     1  ZINC001119787528    0.1800
      5 N5         -8.8252    2.7054   61.9257 N.2     1  ZINC001119787528   -0.4800
      6 C6         -9.3290    1.7691   61.1187 C.2     1  ZINC001119787528   -0.0200
      7 C7         -9.3281    0.5948   61.7853 C.2     1  ZINC001119787528   -0.0100
      8 C8         -9.8104   -0.7156   61.2208 C.3     1  ZINC001119787528   -0.0600
      9 C9        -10.6882   -0.4327   59.9948 C.3     1  ZINC001119787528    0.1400
     10 N10       -10.0283    0.5763   59.1529 N.am    1  ZINC001119787528   -0.6200
     11 C11        -9.6129    0.2714   57.9075 C.2     1  ZINC001119787528    0.7200
     12 O12        -9.7824   -0.8491   57.4675 O.2     1  ZINC001119787528   -0.5600
     13 N13        -9.0098    1.2088   57.1498 N.am    1  ZINC001119787528   -0.6600
     14 C14        -8.5814    0.8943   55.8654 C.ar    1  ZINC001119787528    0.4200
     15 C15        -7.3104    1.2707   55.4304 C.ar    1  ZINC001119787528   -0.2500
     16 C16        -6.9307    0.9343   54.1448 C.ar    1  ZINC001119787528    0.1600
     17 N17        -7.7791    0.2705   53.3733 N.ar    1  ZINC001119787528   -0.5300
     18 C18        -8.9733   -0.0706   53.8144 C.ar    1  ZINC001119787528    0.3500
     19 C19        -9.9038   -0.8255   52.9005 C.3     1  ZINC001119787528   -0.0100
     20 C20       -10.7902    0.1496   52.1694 C.ar    1  ZINC001119787528   -0.0800
     21 C21       -10.3127    1.4042   51.8392 C.ar    1  ZINC001119787528   -0.1000
     22 C22       -11.1258    2.2987   51.1687 C.ar    1  ZINC001119787528   -0.1200
     23 C23       -12.4162    1.9386   50.8280 C.ar    1  ZINC001119787528   -0.1200
     24 C24       -12.8933    0.6837   51.1574 C.ar    1  ZINC001119787528   -0.1200
     25 C25       -12.0789   -0.2124   51.8242 C.ar    1  ZINC001119787528   -0.1000
     26 N26        -9.3740    0.2253   55.0340 N.ar    1  ZINC001119787528   -0.5500
     27 C27        -9.8279    1.9286   59.7020 C.3     1  ZINC001119787528    0.2000
     28 H28        -9.4493   -0.5357   66.0554 H       1  ZINC001119787528    0.0800
     29 H29        -9.3736    1.1914   65.6312 H       1  ZINC001119787528    0.0600
     30 H30       -10.6169    0.1488   64.8994 H       1  ZINC001119787528    0.0600
     31 H31        -7.6064   -0.0919   64.4567 H       1  ZINC001119787528    0.0900
     32 H32        -8.8499   -1.1344   63.7250 H       1  ZINC001119787528    0.1000
     33 H33        -8.0902    2.6763   63.9208 H       1  ZINC001119787528    0.2100
     34 H34        -8.9549   -1.3230   60.9253 H       1  ZINC001119787528    0.0800
     35 H35       -10.3942   -1.2450   61.9738 H       1  ZINC001119787528    0.0900
     36 H36       -10.8238   -1.3513   59.4239 H       1  ZINC001119787528    0.1100
     37 H37       -11.6585   -0.0577   60.3200 H       1  ZINC001119787528    0.0800
     38 H38        -8.8746    2.1028   57.5009 H       1  ZINC001119787528    0.4200
     39 H39        -6.6402    1.8119   56.0818 H       1  ZINC001119787528    0.1800
     40 H40        -5.9545    1.2094   53.7735 H       1  ZINC001119787528    0.1700
     41 H41        -9.3199   -1.3970   52.1790 H       1  ZINC001119787528    0.1000
     42 H42       -10.5195   -1.5051   53.4895 H       1  ZINC001119787528    0.1000
     43 H43        -9.3046    1.6856   52.1055 H       1  ZINC001119787528    0.1300
     44 H44       -10.7531    3.2792   50.9114 H       1  ZINC001119787528    0.1200
     45 H45       -13.0516    2.6377   50.3048 H       1  ZINC001119787528    0.1200
     46 H46       -13.9016    0.4025   50.8916 H       1  ZINC001119787528    0.1200
     47 H47       -12.4517   -1.1927   52.0815 H       1  ZINC001119787528    0.1200
     48 H48       -10.7733    2.4710   59.7062 H       1  ZINC001119787528    0.0900
     49 H49        -9.0930    2.4668   59.1035 H       1  ZINC001119787528    0.0900
@<TRIPOS>BOND
     1     1     2    1
     2     1    28    1
     3     1    29    1
     4     1    30    1
     5     2     3    1
     6     2    31    1
     7     2    32    1
     8     3     7    1
     9     3     4    1
    10     4     5    2
    11     4    33    1
    12     5     6    1
    13     6    27    1
    14     6     7    2
    15     7     8    1
    16     8     9    1
    17     8    34    1
    18     8    35    1
    19     9    10    1
    20     9    36    1
    21     9    37    1
    22    10    11   am
    23    10    27    1
    24    11    12    2
    25    11    13   am
    26    13    14    1
    27    13    38    1
    28    14    26   ar
    29    14    15   ar
    30    15    16   ar
    31    15    39    1
    32    16    17   ar
    33    16    40    1
    34    17    18   ar
    35    18    19    1
    36    18    26   ar
    37    19    20    1
    38    19    41    1
    39    19    42    1
    40    20    25   ar
    41    20    21   ar
    42    21    22   ar
    43    21    43    1
    44    22    23   ar
    45    22    44    1
    46    23    24   ar
    47    23    45    1
    48    24    25   ar
    49    24    46    1
    50    25    47    1
    51    27    48    1
    52    27    49    1
@<TRIPOS>SUBSTRUCTURE
     1 ZINC001119787528        1 TEMP              0 ****  ****    0 ROOT


##########                                Name:    ZINC000006915700
##########                DOCK_Rotatable_Bonds:                   5
##########                         Heavy_Atoms:                  26
##########                    Molecular_Weight:             369.447
##########                DOCK_Rotatable_Bonds:                   5
##########                       Formal_Charge:        -1.04308e-07
##########                     HBond_Acceptors:                   8
##########                        HBond_Donors:                   1
##########                         Heavy_Atoms:                  26
##########                          Grid_Score:          -30.709234
##########                     Grid_vdw_energy:          -28.990927
##########                      Grid_es_energy:           -1.718308
##########           Internal_energy_repulsive:            6.052528

@<TRIPOS>MOLECULE
ZINC000006915700
 45 48 1 0 0
SMALL
USER_CHARGES


@<TRIPOS>ATOM
      1 C1         -9.3032    0.5570   63.6586 C.3     1  <0>        -0.1200
      2 C2         -8.9563    0.8042   62.2130 C.ar    1  <0>        -0.0500
      3 C3         -8.8075    2.1002   61.7523 C.ar    1  <0>        -0.1300
      4 C4         -8.4895    2.3331   60.4300 C.ar    1  <0>        -0.0600
      5 C5         -8.3183    1.2584   59.5572 C.ar    1  <0>        -0.0700
      6 C6         -7.9765    1.5013   58.1368 C.2     1  <0>         0.4400
      7 N7         -8.5447    0.7612   57.1939 N.2     1  <0>        -0.5200
      8 C8         -8.2464    0.9692   55.9079 C.2     1  <0>         0.3600
      9 C9         -8.6678    0.3726   54.7265 C.2     1  <0>        -0.3200
     10 C10        -8.0127    1.0094   53.6714 C.2     1  <0>         0.5500
     11 O11        -8.1423    0.7443   52.4873 O.2     1  <0>        -0.5200
     12 N12        -7.2135    1.9668   54.1812 N.am    1  <0>        -0.5000
     13 N13        -7.3445    1.9582   55.5733 N.pl3   1  <0>        -0.3300
     14 C14        -6.7771    2.7027   56.5669 C.2     1  <0>         0.3900
     15 S15        -5.6215    3.9738   56.1749 S.3     1  <0>         0.1200
     16 C16        -5.3603    4.6796   57.8210 C.3     1  <0>        -0.1500
     17 C17        -3.9890    5.3009   57.8892 C.2     1  <0>         0.5500
     18 O18        -3.8586    6.4990   57.7531 O.2     1  <0>        -0.5200
     19 N19        -2.9075    4.5252   58.1014 N.am    1  <0>        -0.6100
     20 C20        -2.9212    3.0657   58.2780 C.3     1  <0>         0.0900
     21 C21        -1.4634    2.6195   58.5176 C.3     1  <0>        -0.1300
     22 C22        -0.7817    3.9173   59.0256 C.3     1  <0>        -0.1400
     23 C23        -1.5141    4.9988   58.1887 C.3     1  <0>         0.1000
     24 N24        -7.1060    2.4652   57.8271 N.2     1  <0>        -0.5600
     25 C25        -8.4696   -0.0460   60.0279 C.ar    1  <0>        -0.0500
     26 C26        -8.7825   -0.2660   61.3536 C.ar    1  <0>        -0.1300
     27 H27        -8.3868    0.4708   64.2425 H       1  <0>         0.0800
     28 H28        -9.8981    1.3883   64.0369 H       1  <0>         0.0700
     29 H29        -9.8754   -0.3669   63.7421 H       1  <0>         0.0700
     30 H30        -8.9408    2.9314   62.4288 H       1  <0>         0.1300
     31 H31        -8.3740    3.3452   60.0713 H       1  <0>         0.1300
     32 H32        -9.3753   -0.4389   54.6400 H       1  <0>         0.1800
     33 H33        -6.6437    2.5619   53.6690 H       1  <0>         0.4400
     34 H34        -6.1148    5.4423   58.0132 H       1  <0>         0.1400
     35 H35        -5.4401    3.8924   58.5707 H       1  <0>         0.1400
     36 H36        -3.5358    2.8021   59.1387 H       1  <0>         0.0800
     37 H37        -3.3125    2.5873   57.3800 H       1  <0>         0.0800
     38 H38        -1.4191    1.8381   59.2763 H       1  <0>         0.0900
     39 H39        -1.0057    2.2820   57.5877 H       1  <0>         0.0800
     40 H40        -0.9568    4.0588   60.0922 H       1  <0>         0.0800
     41 H41         0.2855    3.9106   58.8041 H       1  <0>         0.0900
     42 H42        -1.0708    5.0748   57.1958 H       1  <0>         0.0800
     43 H43        -1.4757    5.9623   58.6970 H       1  <0>         0.0800
     44 H44        -8.3383   -0.8821   59.3570 H       1  <0>         0.1400
     45 H45        -8.8997   -1.2754   61.7193 H       1  <0>         0.1300
@<TRIPOS>BOND
     1     1     2    1
     2     1    27    1
     3     1    28    1
     4     1    29    1
     5     2    26   ar
     6     2     3   ar
     7     3     4   ar
     8     3    30    1
     9     4     5   ar
    10     4    31    1
    11     5     6    1
    12     5    25   ar
    13     6    24    1
    14     6     7    2
    15     7     8    1
    16     8    13    1
    17     8     9    2
    18     9    10    1
    19     9    32    1
    20    10    11    2
    21    10    12   am
    22    12    13    1
    23    12    33    1
    24    13    14    1
    25    14    15    1
    26    14    24    2
    27    15    16    1
    28    16    17    1
    29    16    34    1
    30    16    35    1
    31    17    18    2
    32    17    19   am
    33    19    23    1
    34    19    20    1
    35    20    21    1
    36    20    36    1
    37    20    37    1
    38    21    22    1
    39    21    38    1
    40    21    39    1
    41    22    23    1
    42    22    40    1
    43    22    41    1
    44    23    42    1
    45    23    43    1
    46    25    26   ar
    47    25    44    1
    48    26    45    1
@<TRIPOS>SUBSTRUCTURE
     1 <0>         1 TEMP              0 ****  ****    0 ROOT


##########                                Name:    ZINC000151303733
##########                DOCK_Rotatable_Bonds:                   7
##########                         Heavy_Atoms:                  26
##########                    Molecular_Weight:             369.444
##########                DOCK_Rotatable_Bonds:                   7
##########                       Formal_Charge:        -1.93715e-07
##########                     HBond_Acceptors:                   7
##########                        HBond_Donors:                   2
##########                         Heavy_Atoms:                  26
##########                          Grid_Score:          -30.708530
##########                     Grid_vdw_energy:          -29.689569
##########                      Grid_es_energy:           -1.018961
##########           Internal_energy_repulsive:           10.097607

@<TRIPOS>MOLECULE
ZINC000151303733
 45 48 1 0 0
SMALL
USER_CHARGES


@<TRIPOS>ATOM
      1 C1         -7.1534    1.3188   54.7893 C.3     1  ZINC000151303733   -0.1000
      2 C2         -7.1499    2.1221   53.5142 C.2     1  ZINC000151303733   -0.1200
      3 C3         -6.0982    2.8429   53.1231 C.2     1  ZINC000151303733   -0.2000
      4 S4         -6.4593    3.6393   51.5973 S.3     1  ZINC000151303733    0.1200
      5 C5         -8.0682    2.9296   51.5707 C.2     1  ZINC000151303733   -0.2400
      6 C6         -8.2388    2.1636   52.6546 C.2     1  ZINC000151303733    0.1200
      7 N7         -9.4325    1.4627   52.9079 N.am    1  ZINC000151303733   -0.6400
      8 C8         -9.4860    0.1302   52.7133 C.2     1  ZINC000151303733    0.5100
      9 O9         -8.5050   -0.4651   52.3196 O.2     1  ZINC000151303733   -0.5100
     10 C10       -10.7643   -0.6203   52.9846 C.3     1  ZINC000151303733    0.1000
     11 N11       -11.2204   -0.3314   54.3465 N.am    1  ZINC000151303733   -0.7100
     12 C12       -10.9836   -1.2132   55.3379 C.2     1  ZINC000151303733    0.5200
     13 O13       -10.3941   -2.2466   55.1021 O.2     1  ZINC000151303733   -0.5100
     14 C14       -11.4512   -0.9152   56.7391 C.3     1  ZINC000151303733    0.1600
     15 H15       -12.2845   -0.2129   56.7141 H       1  ZINC000151303733    0.1300
     16 C16       -10.3172   -0.3451   57.5537 C.ar    1  ZINC000151303733   -0.0900
     17 C17        -9.5402    0.7827   57.4274 C.ar    1  ZINC000151303733   -0.0900
     18 C18        -8.5480    1.0468   58.3571 C.ar    1  ZINC000151303733   -0.0800
     19 C19        -8.3356    0.1790   59.4133 C.ar    1  ZINC000151303733   -0.1200
     20 C20        -9.1093   -0.9554   59.5492 C.ar    1  ZINC000151303733   -0.0400
     21 C21       -10.1112   -1.2283   58.6165 C.ar    1  ZINC000151303733   -0.1500
     22 C22       -11.0807   -2.3337   58.4939 C.2     1  ZINC000151303733    0.5600
     23 O23       -11.1661   -3.2713   59.2627 O.2     1  ZINC000151303733   -0.5100
     24 N24       -11.8572   -2.1556   57.4097 N.am    1  ZINC000151303733   -0.5700
     25 C25       -12.9297   -3.0523   56.9717 C.3     1  ZINC000151303733    0.0900
     26 C26       -14.0187   -3.4006   57.9885 C.3     1  ZINC000151303733   -0.1800
     27 C27       -14.3319   -2.4578   56.8249 C.3     1  ZINC000151303733   -0.1900
     28 H28        -6.7825    0.3140   54.5867 H       1  ZINC000151303733    0.0700
     29 H29        -6.5104    1.8019   55.5249 H       1  ZINC000151303733    0.0700
     30 H30        -8.1698    1.2593   55.1784 H       1  ZINC000151303733    0.0600
     31 H31        -5.1660    2.9255   53.6621 H       1  ZINC000151303733    0.1700
     32 H32        -8.8044    3.0848   50.7959 H       1  ZINC000151303733    0.2000
     33 H33       -10.2169    1.9387   53.2226 H       1  ZINC000151303733    0.4200
     34 H34       -11.5274   -0.3077   52.2719 H       1  ZINC000151303733    0.1100
     35 H35       -10.5864   -1.6906   52.8804 H       1  ZINC000151303733    0.1100
     36 H36       -11.6930    0.4945   54.5347 H       1  ZINC000151303733    0.4100
     37 H37        -9.7035    1.4619   56.6037 H       1  ZINC000151303733    0.1300
     38 H38        -7.9382    1.9325   58.2569 H       1  ZINC000151303733    0.1400
     39 H39        -7.5601    0.3902   60.1347 H       1  ZINC000151303733    0.1400
     40 H40        -8.9405   -1.6301   60.3755 H       1  ZINC000151303733    0.1400
     41 H41       -12.6351   -3.8273   56.2641 H       1  ZINC000151303733    0.1400
     42 H42       -14.4405   -4.4050   57.9501 H       1  ZINC000151303733    0.1000
     43 H43       -13.9371   -2.9626   58.9833 H       1  ZINC000151303733    0.1300
     44 H44       -14.4563   -1.3995   57.0541 H       1  ZINC000151303733    0.1000
     45 H45       -14.9597   -2.8419   56.0209 H       1  ZINC000151303733    0.1000
@<TRIPOS>BOND
     1     1     2    1
     2     1    28    1
     3     1    29    1
     4     1    30    1
     5     2     6    1
     6     2     3    2
     7     3     4    1
     8     3    31    1
     9     4     5    1
    10     5     6    2
    11     5    32    1
    12     6     7    1
    13     7     8   am
    14     7    33    1
    15     8     9    2
    16     8    10    1
    17    10    11    1
    18    10    34    1
    19    10    35    1
    20    11    12   am
    21    11    36    1
    22    12    13    2
    23    12    14    1
    24    14    15    1
    25    14    24    1
    26    14    16    1
    27    16    21   ar
    28    16    17   ar
    29    17    18   ar
    30    17    37    1
    31    18    19   ar
    32    18    38    1
    33    19    20   ar
    34    19    39    1
    35    20    21   ar
    36    20    40    1
    37    21    22    1
    38    22    23    2
    39    22    24   am
    40    24    25    1
    41    25    27    1
    42    25    26    1
    43    25    41    1
    44    26    27    1
    45    26    42    1
    46    26    43    1
    47    27    44    1
    48    27    45    1
@<TRIPOS>SUBSTRUCTURE
     1 ZINC000151303733        1 TEMP              0 ****  ****    0 ROOT


##########                                Name:    ZINC001124460178
##########                DOCK_Rotatable_Bonds:                  12
##########                         Heavy_Atoms:                  22
##########                    Molecular_Weight:             328.479
##########                DOCK_Rotatable_Bonds:                  12
##########                       Formal_Charge:          -0.0100003
##########                     HBond_Acceptors:                   7
##########                        HBond_Donors:                   2
##########                         Heavy_Atoms:                  22
##########                          Grid_Score:          -30.679430
##########                     Grid_vdw_energy:          -30.537691
##########                      Grid_es_energy:           -0.141739
##########           Internal_energy_repulsive:           13.935935

@<TRIPOS>MOLECULE
ZINC001124460178
 50 50 1 0 0
SMALL
USER_CHARGES


@<TRIPOS>ATOM
      1 C1         -1.1348   -2.5082   48.3654 C.3     1  ZINC001124460178   -0.0700
      2 C2         -0.2274   -1.4832   48.9956 C.2     1  ZINC001124460178    0.3100
      3 N3         -0.4678   -0.2100   48.8762 N.2     1  ZINC001124460178   -0.5000
      4 S4          0.7787    0.5766   49.7224 S.3     1  ZINC001124460178    0.1800
      5 C5          1.5647   -0.8818   50.1960 C.2     1  ZINC001124460178    0.3400
      6 N6          2.7162   -1.0107   50.9514 N.pl3   1  ZINC001124460178   -0.6600
      7 C7          3.4500    0.1833   51.3780 C.3     1  ZINC001124460178    0.0900
      8 C8          3.2040    0.4278   52.8682 C.3     1  ZINC001124460178    0.0800
      9 H9          2.1314    0.4520   53.0603 H       1  ZINC001124460178    0.1200
     10 O10         3.8005   -0.6250   53.6283 O.3     1  ZINC001124460178   -0.5500
     11 C11         3.8252    1.7656   53.2748 C.3     1  ZINC001124460178    0.0900
     12 N12         2.7650    2.7586   53.4651 N.am    1  ZINC001124460178   -0.6100
     13 C13         2.0393    3.2865   52.3072 C.3     1  ZINC001124460178    0.0800
     14 C14         2.4574    3.1865   54.7056 C.2     1  ZINC001124460178    0.5100
     15 O15         3.0592    2.7506   55.6641 O.2     1  ZINC001124460178   -0.5400
     16 C16         1.3656    4.2067   54.9016 C.3     1  ZINC001124460178   -0.1400
     17 C17         0.9442    4.2265   56.3723 C.3     1  ZINC001124460178   -0.1100
     18 C18        -0.3914    4.9601   56.5102 C.3     1  ZINC001124460178   -0.1200
     19 C19        -0.8748    4.8710   57.9591 C.3     1  ZINC001124460178   -0.1200
     20 C20        -1.5631    3.5234   58.1851 C.3     1  ZINC001124460178   -0.1000
     21 C21        -1.3485    3.0775   59.6329 C.3     1  ZINC001124460178   -0.1500
     22 C22        -3.0619    3.6639   57.9116 C.3     1  ZINC001124460178   -0.1500
     23 N23         0.8279   -1.8465   49.6869 N.2     1  ZINC001124460178   -0.5800
     24 H24        -1.9221   -2.7781   49.0693 H       1  ZINC001124460178    0.0900
     25 H25        -1.5817   -2.0919   47.4627 H       1  ZINC001124460178    0.0900
     26 H26        -0.5570   -3.3961   48.1087 H       1  ZINC001124460178    0.0900
     27 H27         3.0379   -1.8918   51.1986 H       1  ZINC001124460178    0.4200
     28 H28         4.5160    0.0359   51.2051 H       1  ZINC001124460178    0.0800
     29 H29         3.1050    1.0452   50.8066 H       1  ZINC001124460178    0.0900
     30 H30         3.2869   -0.8899   54.4037 H       1  ZINC001124460178    0.3800
     31 H31         4.3781    1.6414   54.2060 H       1  ZINC001124460178    0.0900
     32 H32         4.5037    2.1040   52.4918 H       1  ZINC001124460178    0.1000
     33 H33         1.1680    2.6623   52.1091 H       1  ZINC001124460178    0.0600
     34 H34         1.7159    4.3065   52.5152 H       1  ZINC001124460178    0.0800
     35 H35         2.6942    3.2836   51.4358 H       1  ZINC001124460178    0.0800
     36 H36         1.7335    5.1921   54.6158 H       1  ZINC001124460178    0.0900
     37 H37         0.5082    3.9450   54.2814 H       1  ZINC001124460178    0.0900
     38 H38         0.8358    3.2035   56.7330 H       1  ZINC001124460178    0.0700
     39 H39         1.7038    4.7407   56.9610 H       1  ZINC001124460178    0.0700
     40 H40        -0.2612    6.0065   56.2343 H       1  ZINC001124460178    0.0600
     41 H41        -1.1284    4.4998   55.8523 H       1  ZINC001124460178    0.0600
     42 H42        -0.0227    4.9612   58.6327 H       1  ZINC001124460178    0.0600
     43 H43        -1.5812    5.6773   58.1567 H       1  ZINC001124460178    0.0600
     44 H44        -1.1385    2.7807   57.5095 H       1  ZINC001124460178    0.0700
     45 H45        -1.7731    3.8201   60.3085 H       1  ZINC001124460178    0.0500
     46 H46        -1.8388    2.1174   59.7938 H       1  ZINC001124460178    0.0500
     47 H47        -0.2808    2.9773   59.8277 H       1  ZINC001124460178    0.0500
     48 H48        -3.2147    3.9816   56.8801 H       1  ZINC001124460178    0.0600
     49 H49        -3.5522    2.7038   58.0725 H       1  ZINC001124460178    0.0500
     50 H50        -3.4864    4.4065   58.5871 H       1  ZINC001124460178    0.0500
@<TRIPOS>BOND
     1     1     2    1
     2     1    24    1
     3     1    25    1
     4     1    26    1
     5     2    23    1
     6     2     3    2
     7     3     4    1
     8     4     5    1
     9     5     6    1
    10     5    23    2
    11     6     7    1
    12     6    27    1
    13     7     8    1
    14     7    28    1
    15     7    29    1
    16     8     9    1
    17     8    10    1
    18     8    11    1
    19    10    30    1
    20    11    12    1
    21    11    31    1
    22    11    32    1
    23    12    13    1
    24    12    14   am
    25    13    33    1
    26    13    34    1
    27    13    35    1
    28    14    15    2
    29    14    16    1
    30    16    17    1
    31    16    36    1
    32    16    37    1
    33    17    18    1
    34    17    38    1
    35    17    39    1
    36    18    19    1
    37    18    40    1
    38    18    41    1
    39    19    20    1
    40    19    42    1
    41    19    43    1
    42    20    21    1
    43    20    22    1
    44    20    44    1
    45    21    45    1
    46    21    46    1
    47    21    47    1
    48    22    48    1
    49    22    49    1
    50    22    50    1
@<TRIPOS>SUBSTRUCTURE
     1 ZINC001124460178        1 TEMP              0 ****  ****    0 ROOT


##########                                Name:    ZINC000481050680
##########                DOCK_Rotatable_Bonds:                   7
##########                         Heavy_Atoms:                  29
##########                    Molecular_Weight:              412.46
##########                DOCK_Rotatable_Bonds:                   7
##########                       Formal_Charge:          -0.0199997
##########                     HBond_Acceptors:                   7
##########                        HBond_Donors:                   1
##########                         Heavy_Atoms:                  29
##########                          Grid_Score:          -30.679430
##########                     Grid_vdw_energy:          -29.706842
##########                      Grid_es_energy:           -0.972587
##########           Internal_energy_repulsive:           13.743915

@<TRIPOS>MOLECULE
ZINC000481050680
 47 49 1 0 0
SMALL
USER_CHARGES


@<TRIPOS>ATOM
      1 N1         -8.2873   -0.3387   52.6869 N.1     1  ZINC000481050680   -0.3900
      2 C2         -8.6047   -0.1879   53.7671 C.1     1  ZINC000481050680    0.2500
      3 C3         -9.0047    0.0021   55.1290 C.ar    1  ZINC000481050680    0.0200
      4 C4        -10.2032   -0.5453   55.5904 C.ar    1  ZINC000481050680   -0.0800
      5 C5        -10.5836   -0.3595   56.9036 C.ar    1  ZINC000481050680   -0.0800
      6 C6         -9.7809    0.3675   57.7638 C.ar    1  ZINC000481050680   -0.1000
      7 C7        -10.2033    0.5659   59.1967 C.3     1  ZINC000481050680   -0.5900
      8 S8         -9.3344   -0.6249   60.2537 S.o2    1  ZINC000481050680    2.6000
      9 O9        -10.2631   -1.4506   60.9428 O.2     1  ZINC000481050680   -0.9300
     10 O10        -8.2251   -1.1861   59.5653 O.2     1  ZINC000481050680   -0.9400
     11 N11        -8.6502    0.3014   61.4438 N.am    1  ZINC000481050680   -1.1100
     12 C12        -9.4989    1.1151   62.3177 C.3     1  ZINC000481050680    0.2100
     13 H13       -10.5449    0.9652   62.0504 H       1  ZINC000481050680    0.1000
     14 C14        -9.1362    2.5920   62.1495 C.3     1  ZINC000481050680   -0.0800
     15 C15       -10.1584    3.4440   62.8568 C.ar    1  ZINC000481050680   -0.0900
     16 C16        -9.9704    3.7926   64.1811 C.ar    1  ZINC000481050680   -0.1200
     17 C17       -10.9080    4.5741   64.8300 C.ar    1  ZINC000481050680   -0.1200
     18 C18       -12.0336    5.0072   64.1543 C.ar    1  ZINC000481050680   -0.1200
     19 C19       -12.2212    4.6591   62.8298 C.ar    1  ZINC000481050680   -0.1200
     20 C20       -11.2814    3.8813   62.1796 C.ar    1  ZINC000481050680   -0.1200
     21 C21        -9.2829    0.7049   63.7515 C.ar    1  ZINC000481050680   -0.1300
     22 C22        -8.0530    0.2205   64.1541 C.ar    1  ZINC000481050680   -0.0700
     23 C23        -7.8547   -0.1561   65.4697 C.ar    1  ZINC000481050680   -0.1300
     24 C24        -8.8862   -0.0488   66.3834 C.ar    1  ZINC000481050680   -0.0900
     25 C25       -10.1174    0.4350   65.9829 C.ar    1  ZINC000481050680   -0.1500
     26 C26       -10.3153    0.8185   64.6675 C.ar    1  ZINC000481050680    0.1100
     27 F27       -11.5183    1.2916   64.2749 F       1  ZINC000481050680   -0.1400
     28 C28        -8.5893    0.9138   57.3137 C.ar    1  ZINC000481050680    0.1200
     29 F29        -7.8100    1.6224   58.1598 F       1  ZINC000481050680   -0.1200
     30 C30        -8.1949    0.7308   56.0023 C.ar    1  ZINC000481050680   -0.1000
     31 H31       -10.8319   -1.1131   54.9204 H       1  ZINC000481050680    0.1500
     32 H32       -11.5109   -0.7826   57.2607 H       1  ZINC000481050680    0.1500
     33 H33        -9.9556    1.5796   59.5115 H       1  ZINC000481050680    0.1500
     34 H34       -11.2788    0.4113   59.2831 H       1  ZINC000481050680    0.1500
     35 H35        -7.6873    0.3051   61.5623 H       1  ZINC000481050680    0.4200
     36 H36        -8.1511    2.7753   62.5785 H       1  ZINC000481050680    0.0900
     37 H37        -9.1235    2.8445   61.0893 H       1  ZINC000481050680    0.0900
     38 H38        -9.0910    3.4543   64.7091 H       1  ZINC000481050680    0.1200
     39 H39       -10.7615    4.8460   65.8649 H       1  ZINC000481050680    0.1200
     40 H40       -12.7666    5.6170   64.6615 H       1  ZINC000481050680    0.1200
     41 H41       -13.1008    4.9972   62.3020 H       1  ZINC000481050680    0.1200
     42 H42       -11.4280    3.6094   61.1448 H       1  ZINC000481050680    0.1200
     43 H43        -7.2465    0.1356   63.4408 H       1  ZINC000481050680    0.1300
     44 H44        -6.8930   -0.5345   65.7834 H       1  ZINC000481050680    0.1300
     45 H45        -8.7302   -0.3435   67.4107 H       1  ZINC000481050680    0.1300
     46 H46       -10.9235    0.5181   66.6970 H       1  ZINC000481050680    0.1400
     47 H47        -7.2662    1.1564   55.6517 H       1  ZINC000481050680    0.1600
@<TRIPOS>BOND
     1     1     2    3
     2     2     3    1
     3     3    30   ar
     4     3     4   ar
     5     4     5   ar
     6     4    31    1
     7     5     6   ar
     8     5    32    1
     9     6     7    1
    10     6    28   ar
    11     7     8    1
    12     7    33    1
    13     7    34    1
    14     8     9    2
    15     8    10    2
    16     8    11   am
    17    11    12    1
    18    11    35    1
    19    12    13    1
    20    12    14    1
    21    12    21    1
    22    14    15    1
    23    14    36    1
    24    14    37    1
    25    15    20   ar
    26    15    16   ar
    27    16    17   ar
    28    16    38    1
    29    17    18   ar
    30    17    39    1
    31    18    19   ar
    32    18    40    1
    33    19    20   ar
    34    19    41    1
    35    20    42    1
    36    21    26   ar
    37    21    22   ar
    38    22    23   ar
    39    22    43    1
    40    23    24   ar
    41    23    44    1
    42    24    25   ar
    43    24    45    1
    44    25    26   ar
    45    25    46    1
    46    26    27    1
    47    28    29    1
    48    28    30   ar
    49    30    47    1
@<TRIPOS>SUBSTRUCTURE
     1 ZINC000481050680        1 TEMP              0 ****  ****    0 ROOT


##########                                Name:    ZINC000550952205
##########                DOCK_Rotatable_Bonds:                   7
##########                         Heavy_Atoms:                  28
##########                    Molecular_Weight:             407.484
##########                DOCK_Rotatable_Bonds:                   7
##########                       Formal_Charge:        -2.68221e-07
##########                     HBond_Acceptors:                   8
##########                        HBond_Donors:                   2
##########                         Heavy_Atoms:                  28
##########                          Grid_Score:          -30.675510
##########                     Grid_vdw_energy:          -27.558817
##########                      Grid_es_energy:           -3.116693
##########           Internal_energy_repulsive:            5.799045

@<TRIPOS>MOLECULE
ZINC000550952205
 51 54 1 0 0
SMALL
USER_CHARGES


@<TRIPOS>ATOM
      1 O1         -5.5863    3.9805   51.5500 O.2     1  ZINC000550952205   -0.5100
      2 C2         -5.4836    3.1943   52.4688 C.2     1  ZINC000550952205    0.5100
      3 N3         -4.3239    3.1007   53.1492 N.am    1  ZINC000550952205   -0.7000
      4 C4         -3.1855    3.9440   52.7758 C.3     1  ZINC000550952205    0.1200
      5 C5         -2.2514    4.1008   53.9773 C.3     1  ZINC000550952205   -0.0900
      6 H6         -1.9256    3.1181   54.3186 H       1  ZINC000550952205    0.1000
      7 C7         -1.0535    4.9215   53.5826 C.3     1  ZINC000550952205   -0.1300
      8 C8          0.2296    4.4805   54.3125 C.3     1  ZINC000550952205   -0.1200
      9 C9         -0.0079    4.1673   55.8020 C.3     1  ZINC000550952205   -0.1300
     10 C10        -0.9206    5.1652   56.4619 C.3     1  ZINC000550952205   -0.1500
     11 C11        -2.3620    4.6186   56.4121 C.3     1  ZINC000550952205    0.3000
     12 F12        -2.3357    3.2464   56.6839 F       1  ZINC000550952205   -0.2000
     13 F13        -3.1240    5.2600   57.3946 F       1  ZINC000550952205   -0.2000
     14 C14        -2.9928    4.8261   55.1188 C.3     1  ZINC000550952205   -0.1700
     15 C15        -6.6439    2.3348   52.8493 C.2     1  ZINC000550952205    0.5100
     16 O16        -7.7007    2.4473   52.2629 O.2     1  ZINC000550952205   -0.4900
     17 N17        -6.5176    1.4340   53.8439 N.am    1  ZINC000550952205   -0.6400
     18 C18        -7.6038    0.6294   54.2001 C.ar    1  ZINC000550952205    0.1500
     19 C19        -8.0877   -0.3255   53.3072 C.ar    1  ZINC000550952205   -0.1200
     20 C20        -9.1442   -1.1159   53.6404 C.ar    1  ZINC000550952205   -0.0400
     21 C21        -9.7699   -0.9833   54.8968 C.ar    1  ZINC000550952205    0.0800
     22 N22       -10.8151   -1.6597   55.4112 N.2     1  ZINC000550952205   -0.4700
     23 C23       -11.2042   -1.3521   56.5901 C.2     1  ZINC000550952205    0.1200
     24 C24       -12.3547   -2.0149   57.3030 C.3     1  ZINC000550952205   -0.1100
     25 C25       -13.6841   -1.2592   57.3535 C.3     1  ZINC000550952205   -0.1500
     26 C26       -13.5355   -2.4866   56.4521 C.3     1  ZINC000550952205   -0.1500
     27 S27       -10.2572   -0.0981   57.2554 S.3     1  ZINC000550952205    0.1200
     28 C28        -9.2813   -0.0239   55.7915 C.ar    1  ZINC000550952205   -0.1700
     29 C29        -8.1965    0.7756   55.4419 C.ar    1  ZINC000550952205   -0.0700
     30 H30        -4.2429    2.4751   53.8860 H       1  ZINC000550952205    0.4200
     31 H31        -2.6434    3.4788   51.9524 H       1  ZINC000550952205    0.0800
     32 H32        -3.5462    4.9246   52.4655 H       1  ZINC000550952205    0.0800
     33 H33        -0.8988    4.8253   52.5079 H       1  ZINC000550952205    0.0700
     34 H34        -1.2503    5.9678   53.8163 H       1  ZINC000550952205    0.0700
     35 H35         0.6231    3.5889   53.8241 H       1  ZINC000550952205    0.0700
     36 H36         0.9698    5.2769   54.2344 H       1  ZINC000550952205    0.0700
     37 H37        -0.4500    3.1747   55.8876 H       1  ZINC000550952205    0.0800
     38 H38         0.9511    4.1699   56.3203 H       1  ZINC000550952205    0.0700
     39 H39        -0.6186    5.3075   57.4995 H       1  ZINC000550952205    0.0900
     40 H40        -0.8706    6.1150   55.9294 H       1  ZINC000550952205    0.1000
     41 H41        -3.0076    5.8940   54.9006 H       1  ZINC000550952205    0.1000
     42 H42        -4.0196    4.4629   55.1646 H       1  ZINC000550952205    0.1000
     43 H43        -5.6731    1.3439   54.3124 H       1  ZINC000550952205    0.4300
     44 H44        -7.6194   -0.4390   52.3406 H       1  ZINC000550952205    0.1400
     45 H45        -9.5066   -1.8503   52.9364 H       1  ZINC000550952205    0.1400
     46 H46       -12.0856   -2.6190   58.1694 H       1  ZINC000550952205    0.1300
     47 H47       -14.2899   -1.3660   58.2533 H       1  ZINC000550952205    0.1000
     48 H48       -13.7266   -0.2827   56.8711 H       1  ZINC000550952205    0.1100
     49 H49       -13.4803   -2.3176   55.3767 H       1  ZINC000550952205    0.1000
     50 H50       -14.0436   -3.4009   56.7589 H       1  ZINC000550952205    0.1100
     51 H51        -7.8199    1.5106   56.1378 H       1  ZINC000550952205    0.1400
@<TRIPOS>BOND
     1     1     2    2
     2     2     3   am
     3     2    15    1
     4     3     4    1
     5     3    30    1
     6     4     5    1
     7     4    31    1
     8     4    32    1
     9     5     6    1
    10     5    14    1
    11     5     7    1
    12     7     8    1
    13     7    33    1
    14     7    34    1
    15     8     9    1
    16     8    35    1
    17     8    36    1
    18     9    10    1
    19     9    37    1
    20     9    38    1
    21    10    11    1
    22    10    39    1
    23    10    40    1
    24    11    12    1
    25    11    13    1
    26    11    14    1
    27    14    41    1
    28    14    42    1
    29    15    16    2
    30    15    17   am
    31    17    18    1
    32    17    43    1
    33    18    29   ar
    34    18    19   ar
    35    19    20   ar
    36    19    44    1
    37    20    21   ar
    38    20    45    1
    39    21    28   ar
    40    21    22    1
    41    22    23    2
    42    23    24    1
    43    23    27    1
    44    24    26    1
    45    24    25    1
    46    24    46    1
    47    25    26    1
    48    25    47    1
    49    25    48    1
    50    26    49    1
    51    26    50    1
    52    27    28    1
    53    28    29   ar
    54    29    51    1
@<TRIPOS>SUBSTRUCTURE
     1 ZINC000550952205        1 TEMP              0 ****  ****    0 ROOT


##########                                Name:    ZINC000555499135
##########                DOCK_Rotatable_Bonds:                   8
##########                         Heavy_Atoms:                  26
##########                    Molecular_Weight:             377.554
##########                DOCK_Rotatable_Bonds:                   8
##########                       Formal_Charge:           0.0399999
##########                     HBond_Acceptors:                   7
##########                        HBond_Donors:                   0
##########                         Heavy_Atoms:                  26
##########                          Grid_Score:          -30.668072
##########                     Grid_vdw_energy:          -31.278599
##########                      Grid_es_energy:            0.610526
##########           Internal_energy_repulsive:           13.186933

@<TRIPOS>MOLECULE
ZINC000555499135
 57 59 1 0 0
SMALL
USER_CHARGES


@<TRIPOS>ATOM
      1 C1         -8.3540   -0.2004   65.7400 C.3     1  ZINC000555499135   -0.1500
      2 C2         -8.9612    0.9993   65.0100 C.3     1  ZINC000555499135   -0.0500
      3 C3         -8.9417    0.7459   63.5246 C.2     1  ZINC000555499135   -0.2100
      4 C4         -8.9973   -0.4497   62.9302 C.2     1  ZINC000555499135    0.0300
      5 N5         -8.9646   -0.4075   61.6134 N.2     1  ZINC000555499135   -0.4500
      6 C6         -8.8846    0.7573   61.0641 C.2     1  ZINC000555499135    0.0400
      7 C7         -8.8360    1.0090   59.5791 C.3     1  ZINC000555499135    0.1500
      8 N8        -10.1879    0.8882   59.0174 N.3     1  ZINC000555499135   -0.4500
      9 C9        -11.0640    1.9549   59.5199 C.3     1  ZINC000555499135    0.0100
     10 C10       -10.1519    0.8867   57.6320 C.2     1  ZINC000555499135    0.3500
     11 N11        -9.8965    1.9145   56.8573 N.2     1  ZINC000555499135   -0.3100
     12 N12        -9.9456    1.5549   55.6244 N.2     1  ZINC000555499135   -0.2900
     13 C13       -10.2328    0.2867   55.5399 C.2     1  ZINC000555499135    0.2100
     14 C14       -10.3806   -0.5131   54.2713 C.3     1  ZINC000555499135   -0.0300
     15 C15        -9.5840    0.1571   53.1501 C.3     1  ZINC000555499135   -0.0900
     16 C16        -8.8906   -0.9142   52.3063 C.3     1  ZINC000555499135   -0.1500
     17 C17       -10.5326    0.9684   52.2653 C.3     1  ZINC000555499135   -0.1500
     18 N18       -10.3694   -0.1852   56.8161 N.pl3   1  ZINC000555499135   -0.4600
     19 C19       -10.6911   -1.5553   57.2227 C.3     1  ZINC000555499135    0.1100
     20 C20       -12.2071   -1.7019   57.3671 C.3     1  ZINC000555499135    0.0700
     21 H21       -12.5748   -0.9773   58.0937 H       1  ZINC000555499135    0.0700
     22 C22       -12.5400   -3.1178   57.8448 C.3     1  ZINC000555499135   -0.1500
     23 C23       -14.0613   -3.2754   57.9292 C.3     1  ZINC000555499135   -0.1200
     24 C24       -14.6725   -2.9654   56.5593 C.3     1  ZINC000555499135   -0.1600
     25 C25       -14.2572   -1.5553   56.1312 C.3     1  ZINC000555499135    0.0600
     26 O26       -12.8312   -1.4678   56.1031 O.3     1  ZINC000555499135   -0.3700
     27 S27        -8.8495    1.9741   62.2646 S.3     1  ZINC000555499135    0.1200
     28 H28        -8.9361   -1.0944   65.5163 H       1  ZINC000555499135    0.0600
     29 H29        -7.3253   -0.3444   65.4095 H       1  ZINC000555499135    0.0600
     30 H30        -8.3681   -0.0172   66.8144 H       1  ZINC000555499135    0.0700
     31 H31        -9.9898    1.1432   65.3406 H       1  ZINC000555499135    0.0900
     32 H32        -8.3791    1.8933   65.2337 H       1  ZINC000555499135    0.0800
     33 H33        -9.0635   -1.3748   63.4835 H       1  ZINC000555499135    0.1800
     34 H34        -8.4535    2.0126   59.3929 H       1  ZINC000555499135    0.0800
     35 H35        -8.1800    0.2770   59.1077 H       1  ZINC000555499135    0.1200
     36 H36       -10.7214    2.9166   59.1382 H       1  ZINC000555499135    0.0500
     37 H37       -12.0855    1.7741   59.1851 H       1  ZINC000555499135    0.0800
     38 H38       -11.0354    1.9653   60.6096 H       1  ZINC000555499135    0.0900
     39 H39       -10.0025   -1.5227   54.4323 H       1  ZINC000555499135    0.1000
     40 H40       -11.4331   -0.5596   53.9917 H       1  ZINC000555499135    0.1000
     41 H41        -8.8348    0.8200   53.5830 H       1  ZINC000555499135    0.0800
     42 H42        -8.2451   -1.5178   52.9444 H       1  ZINC000555499135    0.0500
     43 H43        -9.6416   -1.5529   51.8412 H       1  ZINC000555499135    0.0600
     44 H44        -8.2910   -0.4353   51.5322 H       1  ZINC000555499135    0.0600
     45 H45       -11.0266    1.7317   52.8665 H       1  ZINC000555499135    0.0600
     46 H46        -9.9652    1.4460   51.4665 H       1  ZINC000555499135    0.0600
     47 H47       -11.2819    0.3055   51.8325 H       1  ZINC000555499135    0.0600
     48 H48       -10.3289   -2.2529   56.4675 H       1  ZINC000555499135    0.1100
     49 H49       -10.2124   -1.7728   58.1775 H       1  ZINC000555499135    0.1200
     50 H50       -12.1371   -3.8444   57.1392 H       1  ZINC000555499135    0.0800
     51 H51       -12.1016   -3.2826   58.8291 H       1  ZINC000555499135    0.0800
     52 H52       -14.3067   -4.2982   58.2149 H       1  ZINC000555499135    0.0700
     53 H53       -14.4591   -2.5829   58.6711 H       1  ZINC000555499135    0.0600
     54 H54       -14.3126   -3.6888   55.8277 H       1  ZINC000555499135    0.0700
     55 H55       -15.7591   -3.0211   56.6241 H       1  ZINC000555499135    0.0800
     56 H56       -14.6540   -1.3454   55.1380 H       1  ZINC000555499135    0.1000
     57 H57       -14.6518   -0.8288   56.8416 H       1  ZINC000555499135    0.0500
@<TRIPOS>BOND
     1     1     2    1
     2     1    28    1
     3     1    29    1
     4     1    30    1
     5     2     3    1
     6     2    31    1
     7     2    32    1
     8     3    27    1
     9     3     4    2
    10     4     5    1
    11     4    33    1
    12     5     6    2
    13     6     7    1
    14     6    27    1
    15     7     8    1
    16     7    34    1
    17     7    35    1
    18     8     9    1
    19     8    10    1
    20     9    36    1
    21     9    37    1
    22     9    38    1
    23    10    18    1
    24    10    11    2
    25    11    12    1
    26    12    13    2
    27    13    14    1
    28    13    18    1
    29    14    15    1
    30    14    39    1
    31    14    40    1
    32    15    16    1
    33    15    17    1
    34    15    41    1
    35    16    42    1
    36    16    43    1
    37    16    44    1
    38    17    45    1
    39    17    46    1
    40    17    47    1
    41    18    19    1
    42    19    20    1
    43    19    48    1
    44    19    49    1
    45    20    21    1
    46    20    26    1
    47    20    22    1
    48    22    23    1
    49    22    50    1
    50    22    51    1
    51    23    24    1
    52    23    52    1
    53    23    53    1
    54    24    25    1
    55    24    54    1
    56    24    55    1
    57    25    26    1
    58    25    56    1
    59    25    57    1
@<TRIPOS>SUBSTRUCTURE
     1 ZINC000555499135        1 TEMP              0 ****  ****    0 ROOT


##########                                Name:    ZINC000425987417
##########                DOCK_Rotatable_Bonds:                   9
##########                         Heavy_Atoms:                  25
##########                    Molecular_Weight:             357.419
##########                DOCK_Rotatable_Bonds:                   9
##########                       Formal_Charge:         -0.00999992
##########                     HBond_Acceptors:                   7
##########                        HBond_Donors:                   1
##########                         Heavy_Atoms:                  25
##########                          Grid_Score:          -30.617010
##########                     Grid_vdw_energy:          -30.202736
##########                      Grid_es_energy:           -0.414275
##########           Internal_energy_repulsive:           12.091444

@<TRIPOS>MOLECULE
ZINC000425987417
 51 52 1 0 0
SMALL
USER_CHARGES


@<TRIPOS>ATOM
      1 C1         -9.4756   -1.5497   60.2188 C.3     1  ZINC000425987417   -0.1500
      2 C2        -10.0342   -1.0110   61.5374 C.3     1  ZINC000425987417    0.0400
      3 N3         -9.4910    0.3308   61.7874 N.3     1  ZINC000425987417   -0.5300
      4 C4        -10.1520    1.3326   60.9403 C.3     1  ZINC000425987417    0.0400
      5 C5         -9.1134    2.0046   60.0401 C.3     1  ZINC000425987417    0.1400
      6 N6         -9.5663    1.9515   58.6479 N.am    1  ZINC000425987417   -0.7500
      7 C7         -8.6878    1.6764   57.6634 C.2     1  ZINC000425987417    0.7200
      8 O8         -7.5195    1.4722   57.9309 O.2     1  ZINC000425987417   -0.5800
      9 N9         -9.1045    1.6276   56.3827 N.am    1  ZINC000425987417   -0.6200
     10 C10       -10.5122    1.8699   56.0258 C.3     1  ZINC000425987417    0.1300
     11 C11       -11.0753    0.5792   55.4329 C.3     1  ZINC000425987417   -0.1000
     12 C12       -10.1380    0.0098   54.4008 C.ar    1  ZINC000425987417   -0.0600
     13 C13       -10.6625   -0.8885   53.4799 C.ar    1  ZINC000425987417   -0.1200
     14 C14        -9.8564   -1.4545   52.5140 C.ar    1  ZINC000425987417   -0.1100
     15 C15        -8.5144   -1.1278   52.4606 C.ar    1  ZINC000425987417   -0.1200
     16 C16        -7.9914   -0.2331   53.3720 C.ar    1  ZINC000425987417   -0.1100
     17 C17        -8.8026    0.3413   54.3405 C.ar    1  ZINC000425987417   -0.0900
     18 C18        -8.1725    1.3369   55.2879 C.3     1  ZINC000425987417    0.1800
     19 H19        -7.2530    0.9173   55.6961 H       1  ZINC000425987417    0.0900
     20 C20        -7.8512    2.6271   54.5307 C.3     1  ZINC000425987417   -0.1600
     21 C21        -9.6017    0.6873   63.2082 C.3     1  ZINC000425987417    0.0500
     22 C22        -8.4461    0.0529   63.9847 C.3     1  ZINC000425987417   -0.1600
     23 C23        -8.4205    0.6122   65.4085 C.3     1  ZINC000425987417    0.4500
     24 F24        -8.3613    2.0091   65.3599 F       1  ZINC000425987417   -0.1800
     25 F25        -9.5795    0.2179   66.0855 F       1  ZINC000425987417   -0.1800
     26 F26        -7.2971    0.1212   66.0823 F       1  ZINC000425987417   -0.1900
     27 H27        -8.3926   -1.6462   60.2954 H       1  ZINC000425987417    0.0500
     28 H28        -9.9136   -2.5258   60.0105 H       1  ZINC000425987417    0.0600
     29 H29        -9.7227   -0.8608   59.4111 H       1  ZINC000425987417    0.0700
     30 H30       -11.1211   -0.9575   61.4767 H       1  ZINC000425987417    0.0800
     31 H31        -9.7480   -1.6763   62.3520 H       1  ZINC000425987417    0.0400
     32 H32       -10.9069    0.8452   60.3231 H       1  ZINC000425987417    0.0500
     33 H33       -10.6277    2.0842   61.5703 H       1  ZINC000425987417    0.0800
     34 H34        -8.9891    3.0444   60.3424 H       1  ZINC000425987417    0.0800
     35 H35        -8.1607    1.4830   60.1324 H       1  ZINC000425987417    0.0700
     36 H36       -10.4984    2.1144   58.4346 H       1  ZINC000425987417    0.3900
     37 H37       -11.0768    2.1433   56.9173 H       1  ZINC000425987417    0.1000
     38 H38       -10.5733    2.6713   55.2896 H       1  ZINC000425987417    0.0700
     39 H39       -11.2161   -0.1502   56.2305 H       1  ZINC000425987417    0.0800
     40 H40       -12.0377    0.7891   54.9662 H       1  ZINC000425987417    0.0900
     41 H41       -11.7104   -1.1464   53.5209 H       1  ZINC000425987417    0.1200
     42 H42       -10.2727   -2.1514   51.8017 H       1  ZINC000425987417    0.1200
     43 H43        -7.8778   -1.5710   51.7092 H       1  ZINC000425987417    0.1200
     44 H44        -6.9428    0.0220   53.3311 H       1  ZINC000425987417    0.1200
     45 H45        -8.7701    3.0463   54.1210 H       1  ZINC000425987417    0.0700
     46 H46        -7.3968    3.3453   55.2133 H       1  ZINC000425987417    0.0600
     47 H47        -7.1578    2.4087   53.7187 H       1  ZINC000425987417    0.0700
     48 H48        -9.5595    1.7712   63.3153 H       1  ZINC000425987417    0.0500
     49 H49       -10.5492    0.3199   63.6023 H       1  ZINC000425987417    0.0900
     50 H50        -8.5830   -1.0279   64.0213 H       1  ZINC000425987417    0.1200
     51 H51        -7.5042    0.2832   63.4869 H       1  ZINC000425987417    0.1100
@<TRIPOS>BOND
     1     1     2    1
     2     1    27    1
     3     1    28    1
     4     1    29    1
     5     2     3    1
     6     2    30    1
     7     2    31    1
     8     3     4    1
     9     3    21    1
    10     4     5    1
    11     4    32    1
    12     4    33    1
    13     5     6    1
    14     5    34    1
    15     5    35    1
    16     6     7   am
    17     6    36    1
    18     7     8    2
    19     7     9   am
    20     9    18    1
    21     9    10    1
    22    10    11    1
    23    10    37    1
    24    10    38    1
    25    11    12    1
    26    11    39    1
    27    11    40    1
    28    12    17   ar
    29    12    13   ar
    30    13    14   ar
    31    13    41    1
    32    14    15   ar
    33    14    42    1
    34    15    16   ar
    35    15    43    1
    36    16    17   ar
    37    16    44    1
    38    17    18    1
    39    18    19    1
    40    18    20    1
    41    20    45    1
    42    20    46    1
    43    20    47    1
    44    21    22    1
    45    21    48    1
    46    21    49    1
    47    22    23    1
    48    22    50    1
    49    22    51    1
    50    23    24    1
    51    23    25    1
    52    23    26    1
@<TRIPOS>SUBSTRUCTURE
     1 ZINC000425987417        1 TEMP              0 ****  ****    0 ROOT


##########                                Name:    ZINC000919225759
##########                DOCK_Rotatable_Bonds:                   4
##########                         Heavy_Atoms:                  27
##########                    Molecular_Weight:             375.295
##########                DOCK_Rotatable_Bonds:                   4
##########                       Formal_Charge:                0.04
##########                     HBond_Acceptors:                  11
##########                        HBond_Donors:                   0
##########                         Heavy_Atoms:                  27
##########                          Grid_Score:          -30.608730
##########                     Grid_vdw_energy:          -30.150726
##########                      Grid_es_energy:           -0.458003
##########           Internal_energy_repulsive:            5.602580

@<TRIPOS>MOLECULE
ZINC000919225759
 40 41 1 0 0
SMALL
USER_CHARGES


@<TRIPOS>ATOM
      1 C1        -11.7714   -2.3896   59.5528 C.3     1  ZINC000919225759   -0.1500
      2 C2        -11.2780   -1.7247   58.2935 C.ar    1  ZINC000919225759    0.0900
      3 C3        -10.2397   -0.7934   58.3547 C.ar    1  ZINC000919225759   -0.1200
      4 C4         -9.6210   -0.4564   59.6531 C.2     1  ZINC000919225759    0.5200
      5 O5         -8.7150   -1.1377   60.0894 O.2     1  ZINC000919225759   -0.4700
      6 O6        -10.0617    0.6068   60.3534 O.3     1  ZINC000919225759   -0.3400
      7 C7         -9.1252    1.2220   61.2768 C.3     1  ZINC000919225759    0.1400
      8 H8         -8.1281    0.8151   61.1081 H       1  ZINC000919225759    0.1100
      9 C9         -9.1038    2.7348   61.0492 C.3     1  ZINC000919225759   -0.1700
     10 C10        -9.5527    0.9330   62.6927 C.ar    1  ZINC000919225759   -0.1000
     11 C11       -10.8882    1.0088   63.0405 C.ar    1  ZINC000919225759   -0.0400
     12 C12       -11.2804    0.7437   64.3394 C.ar    1  ZINC000919225759   -0.1100
     13 C13       -10.3370    0.4025   65.2902 C.ar    1  ZINC000919225759   -0.0500
     14 C14        -9.0012    0.3257   64.9421 C.ar    1  ZINC000919225759   -0.0400
     15 N15        -7.9909   -0.0392   65.9603 N.pl3   1  ZINC000919225759    0.0300
     16 O16        -8.3363   -0.2720   67.1049 O.2     1  ZINC000919225759   -0.1500
     17 O17        -6.8140   -0.1068   65.6537 O.2     1  ZINC000919225759   -0.1500
     18 C18        -8.6096    0.5866   63.6425 C.ar    1  ZINC000919225759   -0.0400
     19 C19        -9.7883   -0.1825   57.1829 C.ar    1  ZINC000919225759    0.0500
     20 C20       -10.3701   -0.5022   55.9741 C.ar    1  ZINC000919225759   -0.0600
     21 N21        -9.8927    0.1440   54.7309 N.pl3   1  ZINC000919225759    0.0300
     22 O22        -8.9870    0.9572   54.7763 O.2     1  ZINC000919225759   -0.1300
     23 O23       -10.4056   -0.1372   53.6626 O.2     1  ZINC000919225759   -0.1300
     24 C24       -11.3990   -1.4261   55.9206 C.ar    1  ZINC000919225759    0.0400
     25 C25       -11.8475   -2.0391   57.0769 C.ar    1  ZINC000919225759   -0.0500
     26 N26       -12.9481   -3.0266   57.0099 N.pl3   1  ZINC000919225759    0.0200
     27 O27       -13.8749   -2.8543   56.2386 O.2     1  ZINC000919225759   -0.1300
     28 O28       -12.9270   -4.0115   57.7262 O.2     1  ZINC000919225759   -0.1200
     29 H29       -11.1296   -3.2378   59.7911 H       1  ZINC000919225759    0.1200
     30 H30       -11.7480   -1.6740   60.3746 H       1  ZINC000919225759    0.1200
     31 H31       -12.7934   -2.7379   59.4032 H       1  ZINC000919225759    0.0900
     32 H32       -10.1008    3.1417   61.2179 H       1  ZINC000919225759    0.0700
     33 H33        -8.4008    3.1967   61.7425 H       1  ZINC000919225759    0.0900
     34 H34        -8.7946    2.9439   60.0251 H       1  ZINC000919225759    0.0700
     35 H35       -11.6253    1.2755   62.2976 H       1  ZINC000919225759    0.1500
     36 H36       -12.3239    0.8036   64.6113 H       1  ZINC000919225759    0.1500
     37 H37       -10.6434    0.1960   66.3051 H       1  ZINC000919225759    0.1600
     38 H38        -7.5661    0.5267   63.3705 H       1  ZINC000919225759    0.1600
     39 H39        -8.9857    0.5391   57.2233 H       1  ZINC000919225759    0.1900
     40 H40       -11.8513   -1.6726   54.9713 H       1  ZINC000919225759    0.1900
@<TRIPOS>BOND
     1     1     2    1
     2     1    29    1
     3     1    30    1
     4     1    31    1
     5     2    25   ar
     6     2     3   ar
     7     3     4    1
     8     3    19   ar
     9     4     5    2
    10     4     6    1
    11     6     7    1
    12     7     8    1
    13     7     9    1
    14     7    10    1
    15     9    32    1
    16     9    33    1
    17     9    34    1
    18    10    18   ar
    19    10    11   ar
    20    11    12   ar
    21    11    35    1
    22    12    13   ar
    23    12    36    1
    24    13    14   ar
    25    13    37    1
    26    14    15    1
    27    14    18   ar
    28    15    16    2
    29    15    17    2
    30    18    38    1
    31    19    20   ar
    32    19    39    1
    33    20    21    1
    34    20    24   ar
    35    21    22    2
    36    21    23    2
    37    24    25   ar
    38    24    40    1
    39    25    26    1
    40    26    27    2
    41    26    28    2
@<TRIPOS>SUBSTRUCTURE
     1 ZINC000919225759        1 TEMP              0 ****  ****    0 ROOT


##########                                Name:    ZINC000225856071
##########                DOCK_Rotatable_Bonds:                   6
##########                         Heavy_Atoms:                  29
##########                    Molecular_Weight:             409.549
##########                DOCK_Rotatable_Bonds:                   6
##########                       Formal_Charge:         -0.00999989
##########                     HBond_Acceptors:                   5
##########                        HBond_Donors:                   1
##########                         Heavy_Atoms:                  29
##########                          Grid_Score:          -30.594950
##########                     Grid_vdw_energy:          -29.333931
##########                      Grid_es_energy:           -1.261019
##########           Internal_energy_repulsive:           28.377645

@<TRIPOS>MOLECULE
ZINC000225856071
 56 58 1 0 0
SMALL
USER_CHARGES


@<TRIPOS>ATOM
      1 C1         -8.7610   -0.3851   59.6509 C.3     1  ZINC000225856071    0.0200
      2 O2         -9.1784    0.7111   58.8348 O.3     1  ZINC000225856071   -0.3100
      3 C3         -9.0381    0.5680   57.4905 C.ar    1  ZINC000225856071    0.1900
      4 C4         -9.8131   -0.3563   56.8058 C.ar    1  ZINC000225856071   -0.2300
      5 C5         -9.6691   -0.4996   55.4391 C.ar    1  ZINC000225856071    0.0700
      6 C6        -10.5108   -1.5036   54.6945 C.3     1  ZINC000225856071   -0.1800
      7 C7         -8.7538    0.2777   54.7541 C.ar    1  ZINC000225856071   -0.7100
      8 S8         -8.5729    0.0931   53.0112 S.o2    1  ZINC000225856071    2.7000
      9 O9         -7.8222   -1.0965   52.8095 O.2     1  ZINC000225856071   -0.9600
     10 O10        -9.8610    0.3039   52.4496 O.2     1  ZINC000225856071   -0.9500
     11 N11        -7.6221    1.3415   52.4821 N.am    1  ZINC000225856071   -1.1100
     12 C12        -8.0533    2.7270   52.6840 C.3     1  ZINC000225856071    0.2400
     13 H13        -8.8329    2.7577   53.4452 H       1  ZINC000225856071    0.1100
     14 C14        -8.5928    3.2789   51.3898 C.ar    1  ZINC000225856071   -0.1000
     15 C15        -7.7419    3.4930   50.3216 C.ar    1  ZINC000225856071   -0.1000
     16 C16        -8.2368    3.9992   49.1343 C.ar    1  ZINC000225856071   -0.1200
     17 C17        -9.5828    4.2909   49.0150 C.ar    1  ZINC000225856071   -0.1100
     18 C18       -10.4339    4.0760   50.0829 C.ar    1  ZINC000225856071   -0.1100
     19 C19        -9.9398    3.5657   51.2687 C.ar    1  ZINC000225856071   -0.1000
     20 C20        -6.8792    3.5580   53.1338 C.ar    1  ZINC000225856071   -0.0900
     21 C21        -5.5905    3.1273   52.8809 C.ar    1  ZINC000225856071   -0.1000
     22 C22        -4.5134    3.8897   53.2936 C.ar    1  ZINC000225856071   -0.1200
     23 C23        -4.7255    5.0826   53.9585 C.ar    1  ZINC000225856071   -0.0800
     24 C24        -3.5514    5.9133   54.4087 C.3     1  ZINC000225856071   -0.1200
     25 C25        -6.0147    5.5141   54.2104 C.ar    1  ZINC000225856071   -0.1200
     26 C26        -7.0914    4.7539   53.7945 C.ar    1  ZINC000225856071   -0.0600
     27 C27        -8.4966    5.2241   54.0688 C.3     1  ZINC000225856071   -0.1300
     28 C28        -7.9803    1.2002   55.4345 C.ar    1  ZINC000225856071    0.0200
     29 C29        -8.1236    1.3503   56.8001 C.ar    1  ZINC000225856071   -0.1400
     30 C30        -7.2806    2.3562   57.5408 C.3     1  ZINC000225856071   -0.1100
     31 H31        -7.7009   -0.5781   59.4859 H       1  ZINC000225856071    0.0600
     32 H32        -8.9267   -0.1407   60.7002 H       1  ZINC000225856071    0.1000
     33 H33        -9.3369   -1.2728   59.3892 H       1  ZINC000225856071    0.0600
     34 H34       -10.5284   -0.9638   57.3404 H       1  ZINC000225856071    0.1400
     35 H35       -11.4308   -1.0269   54.3563 H       1  ZINC000225856071    0.0900
     36 H36        -9.9560   -1.8750   53.8329 H       1  ZINC000225856071    0.1000
     37 H37       -10.7544   -2.3352   55.3557 H       1  ZINC000225856071    0.0800
     38 H38        -6.7798    1.1555   52.0387 H       1  ZINC000225856071    0.4200
     39 H39        -6.6904    3.2651   50.4148 H       1  ZINC000225856071    0.1200
     40 H40        -7.5719    4.1672   48.3000 H       1  ZINC000225856071    0.1200
     41 H41        -9.9694    4.6871   48.0877 H       1  ZINC000225856071    0.1200
     42 H42       -11.4854    4.3042   49.9898 H       1  ZINC000225856071    0.1200
     43 H43       -10.6047    3.3978   52.1031 H       1  ZINC000225856071    0.1200
     44 H44        -5.4249    2.1951   52.3613 H       1  ZINC000225856071    0.1200
     45 H45        -3.5064    3.5528   53.0965 H       1  ZINC000225856071    0.1200
     46 H46        -3.2772    6.6128   53.6190 H       1  ZINC000225856071    0.0700
     47 H47        -3.8220    6.4678   55.3073 H       1  ZINC000225856071    0.0700
     48 H48        -2.7061    5.2602   54.6254 H       1  ZINC000225856071    0.0700
     49 H49        -6.1803    6.4464   54.7296 H       1  ZINC000225856071    0.1200
     50 H50        -8.8428    5.8388   53.2379 H       1  ZINC000225856071    0.0800
     51 H51        -9.1532    4.3613   54.1808 H       1  ZINC000225856071    0.0700
     52 H52        -8.5102    5.8125   54.9863 H       1  ZINC000225856071    0.0700
     53 H53        -7.2662    1.8067   54.8971 H       1  ZINC000225856071    0.1500
     54 H54        -7.7974    3.3157   57.5651 H       1  ZINC000225856071    0.0700
     55 H55        -7.1119    2.0086   58.5600 H       1  ZINC000225856071    0.0700
     56 H56        -6.3230    2.4720   57.0331 H       1  ZINC000225856071    0.0700
@<TRIPOS>BOND
     1     1     2    1
     2     1    31    1
     3     1    32    1
     4     1    33    1
     5     2     3    1
     6     3    29   ar
     7     3     4   ar
     8     4     5   ar
     9     4    34    1
    10     5     6    1
    11     5     7   ar
    12     6    35    1
    13     6    36    1
    14     6    37    1
    15     7     8    1
    16     7    28   ar
    17     8     9    2
    18     8    10    2
    19     8    11   am
    20    11    12    1
    21    11    38    1
    22    12    13    1
    23    12    14    1
    24    12    20    1
    25    14    19   ar
    26    14    15   ar
    27    15    16   ar
    28    15    39    1
    29    16    17   ar
    30    16    40    1
    31    17    18   ar
    32    17    41    1
    33    18    19   ar
    34    18    42    1
    35    19    43    1
    36    20    26   ar
    37    20    21   ar
    38    21    22   ar
    39    21    44    1
    40    22    23   ar
    41    22    45    1
    42    23    24    1
    43    23    25   ar
    44    24    46    1
    45    24    47    1
    46    24    48    1
    47    25    26   ar
    48    25    49    1
    49    26    27    1
    50    27    50    1
    51    27    51    1
    52    27    52    1
    53    28    29   ar
    54    28    53    1
    55    29    30    1
    56    30    54    1
    57    30    55    1
    58    30    56    1
@<TRIPOS>SUBSTRUCTURE
     1 ZINC000225856071        1 TEMP              0 ****  ****    0 ROOT


##########                                Name:    ZINC000420486261
##########                DOCK_Rotatable_Bonds:                   7
##########                         Heavy_Atoms:                  26
##########                    Molecular_Weight:             353.378
##########                DOCK_Rotatable_Bonds:                   7
##########                       Formal_Charge:        -2.98023e-08
##########                     HBond_Acceptors:                   7
##########                        HBond_Donors:                   0
##########                         Heavy_Atoms:                  26
##########                          Grid_Score:          -30.589394
##########                     Grid_vdw_energy:          -30.689329
##########                      Grid_es_energy:            0.099936
##########           Internal_energy_repulsive:            7.734280

@<TRIPOS>MOLECULE
ZINC000420486261
 45 47 1 0 0
SMALL
USER_CHARGES


@<TRIPOS>ATOM
      1 C1        -10.2675   -1.0875   53.1671 C.3     1  ZINC000420486261    0.0400
      2 O2        -10.3919   -1.6760   54.4887 O.3     1  ZINC000420486261   -0.3500
      3 C3        -10.2620   -0.8467   55.5418 C.2     1  ZINC000420486261    0.5100
      4 O4        -10.0496    0.3352   55.3614 O.2     1  ZINC000420486261   -0.4900
      5 C5        -10.3781   -1.3761   56.9196 C.ar    1  ZINC000420486261   -0.0700
      6 C6        -10.9800   -2.6148   57.1645 C.ar    1  ZINC000420486261   -0.0900
      7 C7        -11.0696   -3.0766   58.4661 C.ar    1  ZINC000420486261    0.1100
      8 N8        -10.5992   -2.3697   59.4707 N.ar    1  ZINC000420486261   -0.4200
      9 C9        -10.0200   -1.1894   59.2886 C.ar    1  ZINC000420486261    0.1900
     10 C10        -9.5079   -0.4370   60.4556 C.2     1  ZINC000420486261    0.2200
     11 N11        -9.5902   -0.7990   61.7210 N.2     1  ZINC000420486261   -0.4300
     12 C12        -8.9917    0.1892   62.4190 C.2     1  ZINC000420486261    0.2200
     13 C13        -8.8263    0.2488   63.8918 C.ar    1  ZINC000420486261   -0.0600
     14 C14        -7.5726    0.0464   64.4637 C.ar    1  ZINC000420486261   -0.0300
     15 C15        -7.4239    0.1030   65.8347 C.ar    1  ZINC000420486261   -0.1600
     16 C16        -8.5162    0.3602   66.6443 C.ar    1  ZINC000420486261   -0.0600
     17 C17        -9.7646    0.5625   66.0876 C.ar    1  ZINC000420486261   -0.2200
     18 C18        -9.9274    0.5143   64.7120 C.ar    1  ZINC000420486261    0.1700
     19 O19       -11.1537    0.7131   64.1635 O.3     1  ZINC000420486261   -0.2900
     20 C20       -12.0186    1.6377   64.8261 C.3     1  ZINC000420486261    0.0600
     21 C21       -13.1372    2.0628   63.8727 C.3     1  ZINC000420486261   -0.0900
     22 C22       -12.5285    2.7292   62.6373 C.3     1  ZINC000420486261   -0.1500
     23 C23       -13.9383    0.8314   63.4452 C.3     1  ZINC000420486261   -0.1500
     24 N24        -8.5840    1.0849   61.5559 N.2     1  ZINC000420486261   -0.3400
     25 O25        -8.8661    0.7411   60.4277 O.3     1  ZINC000420486261    0.1000
     26 C26        -9.8841   -0.6542   58.0093 C.ar    1  ZINC000420486261   -0.0700
     27 H27       -10.3924   -1.8627   52.4110 H       1  ZINC000420486261    0.1100
     28 H28       -11.0347   -0.3245   53.0354 H       1  ZINC000420486261    0.0700
     29 H29        -9.2819   -0.6337   53.0627 H       1  ZINC000420486261    0.0700
     30 H30       -11.3704   -3.2037   56.3477 H       1  ZINC000420486261    0.1600
     31 H31       -11.5335   -4.0324   58.6601 H       1  ZINC000420486261    0.1800
     32 H32        -6.7178   -0.1549   63.8351 H       1  ZINC000420486261    0.1400
     33 H33        -6.4514   -0.0546   66.2773 H       1  ZINC000420486261    0.1300
     34 H34        -8.3926    0.4025   67.7163 H       1  ZINC000420486261    0.1300
     35 H35       -10.6134    0.7628   66.7245 H       1  ZINC000420486261    0.1400
     36 H36       -12.4522    1.1629   65.7062 H       1  ZINC000420486261    0.0600
     37 H37       -11.4477    2.5149   65.1306 H       1  ZINC000420486261    0.0600
     38 H38       -13.7969    2.7680   64.3782 H       1  ZINC000420486261    0.0800
     39 H39       -11.8688    2.0240   62.1319 H       1  ZINC000420486261    0.0600
     40 H40       -13.3254    3.0322   61.9581 H       1  ZINC000420486261    0.0700
     41 H41       -11.9577    3.6066   62.9419 H       1  ZINC000420486261    0.0600
     42 H42       -13.2786    0.1261   62.9398 H       1  ZINC000420486261    0.0500
     43 H43       -14.3720    0.3565   64.3253 H       1  ZINC000420486261    0.0600
     44 H44       -14.7353    1.1342   62.7660 H       1  ZINC000420486261    0.0600
     45 H45        -9.4121    0.3061   57.8632 H       1  ZINC000420486261    0.1600
@<TRIPOS>BOND
     1     1     2    1
     2     1    27    1
     3     1    28    1
     4     1    29    1
     5     2     3    1
     6     3     4    2
     7     3     5    1
     8     5    26   ar
     9     5     6   ar
    10     6     7   ar
    11     6    30    1
    12     7     8   ar
    13     7    31    1
    14     8     9   ar
    15     9    10    1
    16     9    26   ar
    17    10    25    1
    18    10    11    2
    19    11    12    1
    20    12    13    1
    21    12    24    2
    22    13    18   ar
    23    13    14   ar
    24    14    15   ar
    25    14    32    1
    26    15    16   ar
    27    15    33    1
    28    16    17   ar
    29    16    34    1
    30    17    18   ar
    31    17    35    1
    32    18    19    1
    33    19    20    1
    34    20    21    1
    35    20    36    1
    36    20    37    1
    37    21    22    1
    38    21    23    1
    39    21    38    1
    40    22    39    1
    41    22    40    1
    42    22    41    1
    43    23    42    1
    44    23    43    1
    45    23    44    1
    46    24    25    1
    47    26    45    1
@<TRIPOS>SUBSTRUCTURE
     1 ZINC000420486261        1 TEMP              0 ****  ****    0 ROOT


##########                                Name:    ZINC000655235556
##########                DOCK_Rotatable_Bonds:                   6
##########                         Heavy_Atoms:                  23
##########                    Molecular_Weight:             336.778
##########                DOCK_Rotatable_Bonds:                   6
##########                       Formal_Charge:         -0.00999996
##########                     HBond_Acceptors:                   8
##########                        HBond_Donors:                   2
##########                         Heavy_Atoms:                  23
##########                          Grid_Score:          -30.577446
##########                     Grid_vdw_energy:          -29.983068
##########                      Grid_es_energy:           -0.594377
##########           Internal_energy_repulsive:            6.036298

@<TRIPOS>MOLECULE
ZINC000655235556
 40 42 1 0 0
SMALL
USER_CHARGES


@<TRIPOS>ATOM
      1 C1        -12.1486   -1.2837   55.3150 C.3     1  ZINC000655235556    0.0200
      2 O2        -10.8084   -1.6459   55.6539 O.3     1  ZINC000655235556   -0.2700
      3 C3         -9.8817   -0.6553   55.6450 C.ar    1  ZINC000655235556    0.2000
      4 C4         -9.2808   -0.2748   54.4553 C.ar    1  ZINC000655235556   -0.2100
      5 C5         -8.3369    0.7353   54.4479 C.ar    1  ZINC000655235556    0.0300
      6 Cl6        -7.5885    1.2065   52.9541 Cl      1  ZINC000655235556   -0.0500
      7 C7         -7.9851    1.3744   55.6271 C.ar    1  ZINC000655235556   -0.1600
      8 C8         -8.5730    1.0080   56.8180 C.ar    1  ZINC000655235556   -0.0300
      9 C9         -9.5318   -0.0078   56.8385 C.ar    1  ZINC000655235556   -0.1700
     10 C10       -10.1650   -0.4041   58.1101 C.2     1  ZINC000655235556    0.5700
     11 O11       -11.1044    0.2332   58.5461 O.2     1  ZINC000655235556   -0.5100
     12 N12        -9.7025   -1.4725   58.7890 N.am    1  ZINC000655235556   -0.7300
     13 C13       -10.3326   -1.8673   60.0513 C.3     1  ZINC000655235556    0.2100
     14 C14        -9.7106   -1.0951   61.1862 C.2     1  ZINC000655235556    0.2600
     15 N15       -10.2582   -0.8693   62.3528 N.2     1  ZINC000655235556   -0.5100
     16 C16        -9.4277   -0.1548   63.1111 C.2     1  ZINC000655235556    0.2200
     17 C17        -9.7029    0.3020   64.5207 C.3     1  ZINC000655235556    0.1700
     18 H18       -10.7779    0.3923   64.6767 H       1  ZINC000655235556    0.1100
     19 C19        -9.0209    1.6639   64.7724 C.3     1  ZINC000655235556   -0.1400
     20 C20        -8.5016    1.5084   66.2278 C.3     1  ZINC000655235556   -0.1500
     21 C21        -8.1447    0.0008   66.2532 C.3     1  ZINC000655235556    0.0500
     22 O22        -9.1540   -0.6377   65.4518 O.3     1  ZINC000655235556   -0.3700
     23 N23        -8.3354    0.0851   62.4345 N.2     1  ZINC000655235556   -0.2800
     24 N24        -8.4942   -0.5231   61.1786 N.pl3   1  ZINC000655235556   -0.4700
     25 H25       -12.5122   -0.5361   56.0200 H       1  ZINC000655235556    0.0600
     26 H26       -12.1696   -0.8719   54.3059 H       1  ZINC000655235556    0.0600
     27 H27       -12.7862   -2.1666   55.3605 H       1  ZINC000655235556    0.1100
     28 H28        -9.5501   -0.7683   53.5331 H       1  ZINC000655235556    0.1500
     29 H29        -7.2468    2.1623   55.6119 H       1  ZINC000655235556    0.1400
     30 H30        -8.2957    1.5083   57.7341 H       1  ZINC000655235556    0.1400
     31 H31        -8.9523   -1.9802   58.4418 H       1  ZINC000655235556    0.4000
     32 H32       -11.4002   -1.6519   60.0074 H       1  ZINC000655235556    0.1000
     33 H33       -10.1837   -2.9348   60.2135 H       1  ZINC000655235556    0.1100
     34 H34        -8.1935    1.8173   64.0795 H       1  ZINC000655235556    0.0800
     35 H35        -9.7424    2.4778   64.7028 H       1  ZINC000655235556    0.0900
     36 H36        -7.6183    2.1242   66.3975 H       1  ZINC000655235556    0.0900
     37 H37        -9.2839    1.7392   66.9508 H       1  ZINC000655235556    0.0800
     38 H38        -7.1578   -0.1617   65.8200 H       1  ZINC000655235556    0.0600
     39 H39        -8.1776   -0.3785   67.2745 H       1  ZINC000655235556    0.0900
     40 H40        -7.8557   -0.5244   60.4484 H       1  ZINC000655235556    0.4400
@<TRIPOS>BOND
     1     1     2    1
     2     1    25    1
     3     1    26    1
     4     1    27    1
     5     2     3    1
     6     3     9   ar
     7     3     4   ar
     8     4     5   ar
     9     4    28    1
    10     5     6    1
    11     5     7   ar
    12     7     8   ar
    13     7    29    1
    14     8     9   ar
    15     8    30    1
    16     9    10    1
    17    10    11    2
    18    10    12   am
    19    12    13    1
    20    12    31    1
    21    13    14    1
    22    13    32    1
    23    13    33    1
    24    14    24    1
    25    14    15    2
    26    15    16    1
    27    16    17    1
    28    16    23    2
    29    17    18    1
    30    17    22    1
    31    17    19    1
    32    19    20    1
    33    19    34    1
    34    19    35    1
    35    20    21    1
    36    20    36    1
    37    20    37    1
    38    21    22    1
    39    21    38    1
    40    21    39    1
    41    23    24    1
    42    24    40    1
@<TRIPOS>SUBSTRUCTURE
     1 ZINC000655235556        1 TEMP              0 ****  ****    0 ROOT


##########                                Name:    ZINC000848949366
##########                DOCK_Rotatable_Bonds:                   8
##########                         Heavy_Atoms:                  25
##########                    Molecular_Weight:             368.773
##########                DOCK_Rotatable_Bonds:                   8
##########                       Formal_Charge:          0.00999947
##########                     HBond_Acceptors:                   9
##########                        HBond_Donors:                   3
##########                         Heavy_Atoms:                  25
##########                          Grid_Score:          -30.574642
##########                     Grid_vdw_energy:          -29.560076
##########                      Grid_es_energy:           -1.014567
##########           Internal_energy_repulsive:           17.306221

@<TRIPOS>MOLECULE
ZINC000848949366
 42 43 1 0 0
SMALL
USER_CHARGES


@<TRIPOS>ATOM
      1 C1         -9.9805   -1.6850   54.3656 C.3     1  ZINC000848949366   -0.1500
      2 C2        -11.4286   -1.3342   54.7135 C.3     1  ZINC000848949366    0.0600
      3 O3        -11.7334   -1.8152   56.0241 O.3     1  ZINC000848949366   -0.3500
      4 C4        -12.9910   -1.6176   56.4720 C.2     1  ZINC000848949366    0.5400
      5 O5        -13.7837   -0.9844   55.8002 O.2     1  ZINC000848949366   -0.4800
      6 C6        -13.3877   -2.1466   57.7225 C.2     1  ZINC000848949366   -0.2300
      7 C7        -12.8624   -1.6806   58.8760 C.2     1  ZINC000848949366    0.2000
      8 C8        -11.8361   -0.5780   58.8310 C.3     1  ZINC000848949366    0.1000
      9 O9        -11.4770   -0.1952   60.1849 O.3     1  ZINC000848949366   -0.3500
     10 C10       -10.2235   -0.4801   60.5891 C.2     1  ZINC000848949366    0.5100
     11 O11        -9.4732   -1.0934   59.8559 O.2     1  ZINC000848949366   -0.4800
     12 C12        -9.7625   -0.0476   61.9201 C.ar    1  ZINC000848949366   -0.1600
     13 C13        -8.4810   -0.3855   62.3639 C.ar    1  ZINC000848949366   -0.0300
     14 C14        -8.0557    0.0216   63.6092 C.ar    1  ZINC000848949366   -0.1300
     15 C15        -8.8938    0.7657   64.4259 C.ar    1  ZINC000848949366    0.0200
     16 Cl16       -8.3452    1.2717   65.9933 Cl      1  ZINC000848949366   -0.0500
     17 C17       -10.1636    1.1070   63.9989 C.ar    1  ZINC000848949366   -0.1500
     18 C18       -10.6053    0.7104   62.7464 C.ar    1  ZINC000848949366    0.1900
     19 O19       -11.8508    1.0445   62.3260 O.3     1  ZINC000848949366   -0.4700
     20 N20       -13.2465   -2.1918   60.0827 N.am    1  ZINC000848949366   -0.6400
     21 C21       -14.1499   -3.1704   60.2208 C.2     1  ZINC000848949366    0.7100
     22 O22       -14.4278   -3.5606   61.3380 O.2     1  ZINC000848949366   -0.5600
     23 N23       -14.7614   -3.7366   59.1616 N.am    1  ZINC000848949366   -0.7100
     24 C24       -14.4209   -3.2511   57.8137 C.3     1  ZINC000848949366    0.2000
     25 H25       -15.3387   -2.9021   57.3405 H       1  ZINC000848949366    0.0900
     26 C26       -13.8993   -4.4388   57.0024 C.3     1  ZINC000848949366   -0.1700
     27 H27        -9.7479   -1.3180   53.3659 H       1  ZINC000848949366    0.0800
     28 H28        -9.3102   -1.2199   55.0885 H       1  ZINC000848949366    0.0700
     29 H29        -9.8519   -2.7670   54.3944 H       1  ZINC000848949366    0.0700
     30 H30       -11.5572   -0.2521   54.6847 H       1  ZINC000848949366    0.0700
     31 H31       -12.0988   -1.7992   53.9906 H       1  ZINC000848949366    0.0700
     32 H32       -10.9482   -0.9292   58.3053 H       1  ZINC000848949366    0.1100
     33 H33       -12.2510    0.2835   58.3078 H       1  ZINC000848949366    0.1000
     34 H34        -7.8252   -0.9655   61.7315 H       1  ZINC000848949366    0.1500
     35 H35        -7.0653   -0.2402   63.9512 H       1  ZINC000848949366    0.1500
     36 H36       -10.8108    1.6867   64.6404 H       1  ZINC000848949366    0.1500
     37 H37       -12.3575    1.5605   62.9681 H       1  ZINC000848949366    0.4000
     38 H38       -12.8421   -1.8256   60.8847 H       1  ZINC000848949366    0.4300
     39 H39       -15.4128   -4.4448   59.2845 H       1  ZINC000848949366    0.4400
     40 H40       -14.6717   -5.2055   56.9428 H       1  ZINC000848949366    0.0700
     41 H41       -13.6392   -4.1061   55.9975 H       1  ZINC000848949366    0.0700
     42 H42       -13.0151   -4.8509   57.4889 H       1  ZINC000848949366    0.0700
@<TRIPOS>BOND
     1     1     2    1
     2     1    27    1
     3     1    28    1
     4     1    29    1
     5     2     3    1
     6     2    30    1
     7     2    31    1
     8     3     4    1
     9     4     5    2
    10     4     6    1
    11     6    24    1
    12     6     7    2
    13     7     8    1
    14     7    20    1
    15     8     9    1
    16     8    32    1
    17     8    33    1
    18     9    10    1
    19    10    11    2
    20    10    12    1
    21    12    18   ar
    22    12    13   ar
    23    13    14   ar
    24    13    34    1
    25    14    15   ar
    26    14    35    1
    27    15    16    1
    28    15    17   ar
    29    17    18   ar
    30    17    36    1
    31    18    19    1
    32    19    37    1
    33    20    21   am
    34    20    38    1
    35    21    22    2
    36    21    23   am
    37    23    24    1
    38    23    39    1
    39    24    25    1
    40    24    26    1
    41    26    40    1
    42    26    41    1
    43    26    42    1
@<TRIPOS>SUBSTRUCTURE
     1 ZINC000848949366        1 TEMP              0 ****  ****    0 ROOT


##########                                Name:    ZINC000989658617
##########                DOCK_Rotatable_Bonds:                   6
##########                         Heavy_Atoms:                  24
##########                    Molecular_Weight:             334.418
##########                DOCK_Rotatable_Bonds:                   6
##########                       Formal_Charge:          -0.0100001
##########                     HBond_Acceptors:                   7
##########                        HBond_Donors:                   2
##########                         Heavy_Atoms:                  24
##########                          Grid_Score:          -30.542656
##########                     Grid_vdw_energy:          -29.614801
##########                      Grid_es_energy:           -0.927854
##########           Internal_energy_repulsive:           12.430074

@<TRIPOS>MOLECULE
ZINC000989658617
 50 52 1 0 0
SMALL
USER_CHARGES


@<TRIPOS>ATOM
      1 C1         -8.4732    0.0828   65.8000 C.3     1  ZINC000989658617    0.0300
      2 O2         -9.1855    0.2621   64.5742 O.3     1  ZINC000989658617   -0.3700
      3 C3         -8.8672    1.4751   63.8890 C.3     1  ZINC000989658617    0.0500
      4 C4         -9.6433    1.5417   62.5989 C.2     1  ZINC000989658617    0.5300
      5 O5        -10.3800    2.4804   62.3822 O.2     1  ZINC000989658617   -0.5100
      6 N6         -9.5184    0.5583   61.6858 N.am    1  ZINC000989658617   -0.6200
      7 C7         -8.6625   -0.6345   61.8194 C.3     1  ZINC000989658617    0.1000
      8 C8         -8.3837   -1.0876   60.3645 C.3     1  ZINC000989658617   -0.1500
      9 C9         -9.7432   -0.7883   59.6792 C.3     1  ZINC000989658617    0.1400
     10 H10       -10.4475   -1.6029   59.8475 H       1  ZINC000989658617    0.1100
     11 N11        -9.5598   -0.5523   58.2450 N.am    1  ZINC000989658617   -0.7100
     12 C12       -10.3273   -1.2065   57.3509 C.2     1  ZINC000989658617    0.6100
     13 O13       -11.1707   -1.9935   57.7344 O.2     1  ZINC000989658617   -0.5200
     14 C14       -10.1436   -0.9672   55.9049 C.2     1  ZINC000989658617   -0.0100
     15 N15       -10.7292   -1.6204   54.9157 N.2     1  ZINC000989658617   -0.2600
     16 N16       -10.3398   -1.1498   53.7812 N.pl3   1  ZINC000989658617   -0.3700
     17 C17        -9.4665   -0.1478   53.9739 C.2     1  ZINC000989658617    0.0100
     18 C18        -9.3173    0.0026   55.3130 C.2     1  ZINC000989658617   -0.1400
     19 C19        -8.4196    1.0186   55.9639 C.3     1  ZINC000989658617   -0.0400
     20 C20        -7.4367    1.5401   54.9069 C.3     1  ZINC000989658617   -0.0900
     21 H21        -6.7219    0.7560   54.6574 H       1  ZINC000989658617    0.0700
     22 C22        -6.6887    2.7542   55.4613 C.3     1  ZINC000989658617   -0.1500
     23 C23        -8.2077    1.9472   53.6483 C.3     1  ZINC000989658617   -0.1100
     24 C24        -8.7551    0.6979   52.9491 C.3     1  ZINC000989658617   -0.0500
     25 C25       -10.2183    0.4941   60.3944 C.3     1  ZINC000989658617    0.1300
     26 H26        -9.9628    1.3686   59.7961 H       1  ZINC000989658617    0.0800
     27 C27       -11.7315    0.4375   60.6133 C.3     1  ZINC000989658617   -0.1600
     28 H28        -7.4020    0.0670   65.5987 H       1  ZINC000989658617    0.0500
     29 H29        -8.7034    0.9050   66.4776 H       1  ZINC000989658617    0.0400
     30 H30        -8.7707   -0.8602   66.2586 H       1  ZINC000989658617    0.0900
     31 H31        -9.1310    2.3266   64.5161 H       1  ZINC000989658617    0.0800
     32 H32        -7.7993    1.5004   63.6723 H       1  ZINC000989658617    0.0800
     33 H33        -7.7299   -0.3780   62.3221 H       1  ZINC000989658617    0.0800
     34 H34        -9.1863   -1.4181   62.3669 H       1  ZINC000989658617    0.0800
     35 H35        -7.5830   -0.4977   59.9183 H       1  ZINC000989658617    0.0800
     36 H36        -8.1518   -2.1519   60.3243 H       1  ZINC000989658617    0.1000
     37 H37        -8.8860    0.0747   57.9389 H       1  ZINC000989658617    0.4100
     38 H38       -10.6343   -1.4720   52.9150 H       1  ZINC000989658617    0.4500
     39 H39        -9.0179    1.8445   56.3487 H       1  ZINC000989658617    0.0800
     40 H40        -7.8681    0.5522   56.7802 H       1  ZINC000989658617    0.0800
     41 H41        -6.1392    2.4646   56.3570 H       1  ZINC000989658617    0.0600
     42 H42        -5.9906    3.1248   54.7107 H       1  ZINC000989658617    0.0600
     43 H43        -7.4034    3.5384   55.7112 H       1  ZINC000989658617    0.0600
     44 H44        -9.0376    2.5971   53.9255 H       1  ZINC000989658617    0.0700
     45 H45        -7.5407    2.4803   52.9707 H       1  ZINC000989658617    0.0800
     46 H46        -7.9321    0.1283   52.5174 H       1  ZINC000989658617    0.0800
     47 H47        -9.4508    0.9920   52.1632 H       1  ZINC000989658617    0.0800
     48 H48       -11.9778   -0.4289   61.2270 H       1  ZINC000989658617    0.0600
     49 H49       -12.0597    1.3459   61.1186 H       1  ZINC000989658617    0.0700
     50 H50       -12.2351    0.3554   59.6500 H       1  ZINC000989658617    0.0700
@<TRIPOS>BOND
     1     1     2    1
     2     1    28    1
     3     1    29    1
     4     1    30    1
     5     2     3    1
     6     3     4    1
     7     3    31    1
     8     3    32    1
     9     4     5    2
    10     4     6   am
    11     6    25    1
    12     6     7    1
    13     7     8    1
    14     7    33    1
    15     7    34    1
    16     8     9    1
    17     8    35    1
    18     8    36    1
    19     9    10    1
    20     9    11    1
    21     9    25    1
    22    11    12   am
    23    11    37    1
    24    12    13    2
    25    12    14    1
    26    14    18    1
    27    14    15    2
    28    15    16    1
    29    16    17    1
    30    16    38    1
    31    17    24    1
    32    17    18    2
    33    18    19    1
    34    19    20    1
    35    19    39    1
    36    19    40    1
    37    20    21    1
    38    20    22    1
    39    20    23    1
    40    22    41    1
    41    22    42    1
    42    22    43    1
    43    23    24    1
    44    23    44    1
    45    23    45    1
    46    24    46    1
    47    24    47    1
    48    25    26    1
    49    25    27    1
    50    27    48    1
    51    27    49    1
    52    27    50    1
@<TRIPOS>SUBSTRUCTURE
     1 ZINC000989658617        1 TEMP              0 ****  ****    0 ROOT


##########                                Name:    ZINC000762020937
##########                DOCK_Rotatable_Bonds:                  10
##########                         Heavy_Atoms:                  28
##########                    Molecular_Weight:             391.467
##########                DOCK_Rotatable_Bonds:                  10
##########                       Formal_Charge:         -1.8999e-07
##########                     HBond_Acceptors:                   8
##########                        HBond_Donors:                   1
##########                         Heavy_Atoms:                  28
##########                          Grid_Score:          -30.537020
##########                     Grid_vdw_energy:          -30.231667
##########                      Grid_es_energy:           -0.305353
##########           Internal_energy_repulsive:           22.847164

@<TRIPOS>MOLECULE
ZINC000762020937
 57 58 1 0 0
SMALL
USER_CHARGES


@<TRIPOS>ATOM
      1 C1          4.2187   -1.2880   53.6948 C.3     1  ZINC000762020937    0.0200
      2 O2          4.2990   -0.7079   52.3912 O.3     1  ZINC000762020937   -0.3000
      3 C3          3.3809    0.2466   52.0826 C.ar    1  ZINC000762020937    0.1100
      4 C4          3.4611    1.5009   52.6650 C.ar    1  ZINC000762020937   -0.1700
      5 C5          2.5269    2.4706   52.3497 C.ar    1  ZINC000762020937   -0.1000
      6 C6          1.5119    2.1914   51.4543 C.ar    1  ZINC000762020937   -0.1000
      7 C7          0.4962    3.2517   51.1146 C.3     1  ZINC000762020937    0.0200
      8 C8         -0.4404    3.4417   52.2798 C.2     1  ZINC000762020937    0.1900
      9 N9         -1.6430    3.9630   52.2382 N.2     1  ZINC000762020937   -0.4700
     10 C10        -2.0964    3.9286   53.5038 C.2     1  ZINC000762020937    0.1600
     11 C11        -3.4395    4.4154   53.9836 C.3     1  ZINC000762020937    0.2600
     12 H12        -3.6615    5.3793   53.5253 H       1  ZINC000762020937    0.1200
     13 N13        -4.4726    3.4469   53.6082 N.am    1  ZINC000762020937   -0.7100
     14 C14        -5.2253    3.6559   52.5099 C.2     1  ZINC000762020937    0.6600
     15 O15        -5.0461    4.6471   51.8302 O.2     1  ZINC000762020937   -0.5600
     16 O16        -6.1757    2.7666   52.1659 O.3     1  ZINC000762020937   -0.3600
     17 C17        -7.5196    3.2806   51.9702 C.3     1  ZINC000762020937    0.1400
     18 C18        -7.6156    3.9474   50.5965 C.3     1  ZINC000762020937   -0.1800
     19 C19        -8.5229    2.1282   52.0490 C.3     1  ZINC000762020937   -0.1400
     20 C20        -7.8363    4.3078   53.0590 C.3     1  ZINC000762020937   -0.1800
     21 C21        -3.4128    4.5684   55.5056 C.3     1  ZINC000762020937   -0.1000
     22 C22        -2.5264    5.7570   55.8832 C.3     1  ZINC000762020937   -0.1400
     23 C23        -4.8338    4.8084   56.0192 C.3     1  ZINC000762020937   -0.1400
     24 N24        -1.1640    3.3981   54.2371 N.2     1  ZINC000762020937   -0.3700
     25 O25        -0.2064    3.1061   53.5520 O.3     1  ZINC000762020937    0.0900
     26 C26         1.4264    0.9414   50.8690 C.ar    1  ZINC000762020937   -0.1500
     27 C27         2.3619   -0.0328   51.1764 C.ar    1  ZINC000762020937    0.1000
     28 O28         2.2793   -1.2625   50.6018 O.3     1  ZINC000762020937   -0.3100
     29 C29         2.1145   -1.3058   49.1829 C.3     1  ZINC000762020937    0.0200
     30 H30         4.3418   -0.5091   54.4473 H       1  ZINC000762020937    0.0600
     31 H31         3.2467   -1.7648   53.8210 H       1  ZINC000762020937    0.0600
     32 H32         5.0064   -2.0326   53.8103 H       1  ZINC000762020937    0.1000
     33 H33         4.2529    1.7214   53.3655 H       1  ZINC000762020937    0.1400
     34 H34         2.5905    3.4481   52.8045 H       1  ZINC000762020937    0.1300
     35 H35         1.0079    4.1905   50.9029 H       1  ZINC000762020937    0.1200
     36 H36        -0.0728    2.9421   50.2379 H       1  ZINC000762020937    0.1200
     37 H37        -4.6149    2.6550   54.1501 H       1  ZINC000762020937    0.4100
     38 H38        -7.3899    3.2156   49.8208 H       1  ZINC000762020937    0.0600
     39 H39        -8.6243    4.3333   50.4496 H       1  ZINC000762020937    0.0700
     40 H40        -6.9008    4.7684   50.5405 H       1  ZINC000762020937    0.0900
     41 H41        -8.4546    1.6531   53.0276 H       1  ZINC000762020937    0.0700
     42 H42        -9.5317    2.5140   51.9019 H       1  ZINC000762020937    0.0800
     43 H43        -8.2973    1.3964   51.2733 H       1  ZINC000762020937    0.0700
     44 H44        -7.1215    5.1288   53.0029 H       1  ZINC000762020937    0.0900
     45 H45        -8.8451    4.6937   52.9121 H       1  ZINC000762020937    0.0700
     46 H46        -7.7680    3.8328   54.0376 H       1  ZINC000762020937    0.0600
     47 H47        -3.0126    3.6596   55.9551 H       1  ZINC000762020937    0.0800
     48 H48        -2.9265    6.6658   55.4337 H       1  ZINC000762020937    0.0600
     49 H49        -2.5074    5.8660   56.9676 H       1  ZINC000762020937    0.0600
     50 H50        -1.5141    5.5860   55.5173 H       1  ZINC000762020937    0.0500
     51 H51        -5.4652    3.9616   55.7502 H       1  ZINC000762020937    0.0500
     52 H52        -4.8147    4.9174   57.1035 H       1  ZINC000762020937    0.0600
     53 H53        -5.2339    5.7172   55.5697 H       1  ZINC000762020937    0.0700
     54 H54         0.6322    0.7259   50.1696 H       1  ZINC000762020937    0.1400
     55 H55         2.9614   -0.8148   48.7036 H       1  ZINC000762020937    0.0600
     56 H56         2.0629   -2.3439   48.8546 H       1  ZINC000762020937    0.1000
     57 H57         1.1934   -0.7917   48.9083 H       1  ZINC000762020937    0.0600
@<TRIPOS>BOND
     1     1     2    1
     2     1    30    1
     3     1    31    1
     4     1    32    1
     5     2     3    1
     6     3    27   ar
     7     3     4   ar
     8     4     5   ar
     9     4    33    1
    10     5     6   ar
    11     5    34    1
    12     6     7    1
    13     6    26   ar
    14     7     8    1
    15     7    35    1
    16     7    36    1
    17     8    25    1
    18     8     9    2
    19     9    10    1
    20    10    11    1
    21    10    24    2
    22    11    12    1
    23    11    13    1
    24    11    21    1
    25    13    14   am
    26    13    37    1
    27    14    15    2
    28    14    16    1
    29    16    17    1
    30    17    18    1
    31    17    19    1
    32    17    20    1
    33    18    38    1
    34    18    39    1
    35    18    40    1
    36    19    41    1
    37    19    42    1
    38    19    43    1
    39    20    44    1
    40    20    45    1
    41    20    46    1
    42    21    22    1
    43    21    23    1
    44    21    47    1
    45    22    48    1
    46    22    49    1
    47    22    50    1
    48    23    51    1
    49    23    52    1
    50    23    53    1
    51    24    25    1
    52    26    27   ar
    53    26    54    1
    54    27    28    1
    55    28    29    1
    56    29    55    1
    57    29    56    1
    58    29    57    1
@<TRIPOS>SUBSTRUCTURE
     1 ZINC000762020937        1 TEMP              0 ****  ****    0 ROOT


##########                                Name:    ZINC001490207225
##########                DOCK_Rotatable_Bonds:                   7
##########                         Heavy_Atoms:                  24
##########                    Molecular_Weight:             334.378
##########                DOCK_Rotatable_Bonds:                   7
##########                       Formal_Charge:           -0.010001
##########                     HBond_Acceptors:                   9
##########                        HBond_Donors:                   3
##########                         Heavy_Atoms:                  24
##########                          Grid_Score:          -30.529860
##########                     Grid_vdw_energy:          -28.091442
##########                      Grid_es_energy:           -2.438418
##########           Internal_energy_repulsive:            7.376347

@<TRIPOS>MOLECULE
ZINC001490207225
 46 48 1 0 0
SMALL
USER_CHARGES


@<TRIPOS>ATOM
      1 C1         -5.3388    3.0305   52.7634 C.3     1  ZINC001490207225    0.0900
      2 N2         -6.6134    2.3127   52.6836 N.pl3   1  ZINC001490207225   -0.3600
      3 C3         -6.9487    1.2274   53.3992 C.2     1  ZINC001490207225    0.1300
      4 C4         -8.2274    0.8651   53.0261 C.2     1  ZINC001490207225   -0.3000
      5 C5         -9.0040   -0.2718   53.5532 C.2     1  ZINC001490207225    0.6200
      6 O6         -9.3804   -1.1512   52.8024 O.2     1  ZINC001490207225   -0.5400
      7 N7         -9.2967   -0.3365   54.8672 N.am    1  ZINC001490207225   -0.6200
      8 C8        -10.0521   -1.4002   55.5489 C.3     1  ZINC001490207225    0.1100
      9 C9        -10.7861   -0.7286   56.7212 C.3     1  ZINC001490207225   -0.1100
     10 H10       -11.8457   -0.5822   56.5110 H       1  ZINC001490207225    0.1000
     11 C11       -10.5583   -1.5595   58.0015 C.3     1  ZINC001490207225    0.1000
     12 N12       -10.2685   -0.5578   59.0534 N.am    1  ZINC001490207225   -0.6200
     13 C13       -10.6881   -0.5587   60.3341 C.2     1  ZINC001490207225    0.5300
     14 O14       -11.3903   -1.4598   60.7415 O.2     1  ZINC001490207225   -0.5300
     15 C15       -10.2847    0.5596   61.2601 C.3     1  ZINC001490207225    0.1200
     16 N16        -8.9253    0.3205   61.7514 N.am    1  ZINC001490207225   -0.7400
     17 C17        -8.7286   -0.0694   63.0265 C.2     1  ZINC001490207225    0.7100
     18 N18        -7.4782   -0.2908   63.4781 N.am    1  ZINC001490207225   -0.8600
     19 O19        -9.6790   -0.2214   63.7693 O.2     1  ZINC001490207225   -0.5900
     20 C20        -9.4129    0.4451   58.3782 C.3     1  ZINC001490207225    0.1100
     21 C21       -10.0441    0.6134   56.9526 C.3     1  ZINC001490207225   -0.0800
     22 C22       -10.9603    1.8360   56.8701 C.3     1  ZINC001490207225   -0.1300
     23 C23        -8.9180    0.6395   55.9021 C.3     1  ZINC001490207225    0.1000
     24 C24        -8.6527    1.7882   52.0446 C.2     1  ZINC001490207225    0.0700
     25 N25        -7.6891    2.6464   51.8530 N.2     1  ZINC001490207225   -0.2900
     26 H26        -5.4074    3.8096   53.5224 H       1  ZINC001490207225    0.0800
     27 H27        -4.5449    2.3327   53.0298 H       1  ZINC001490207225    0.0900
     28 H28        -5.1156    3.4830   51.7972 H       1  ZINC001490207225    0.1000
     29 H29        -6.3313    0.7290   54.1320 H       1  ZINC001490207225    0.1900
     30 H30       -10.7722   -1.8461   54.8629 H       1  ZINC001490207225    0.0900
     31 H31        -9.3691   -2.1630   55.9230 H       1  ZINC001490207225    0.0800
     32 H32       -11.4560   -2.1246   58.2523 H       1  ZINC001490207225    0.0900
     33 H33        -9.7095   -2.2310   57.8724 H       1  ZINC001490207225    0.0900
     34 H34       -10.3149    1.5065   60.7210 H       1  ZINC001490207225    0.1000
     35 H35       -10.9741    0.5996   62.1035 H       1  ZINC001490207225    0.1000
     36 H36        -8.1670    0.4430   61.1592 H       1  ZINC001490207225    0.4100
     37 H37        -7.3367   -0.5726   64.3954 H       1  ZINC001490207225    0.4000
     38 H38        -6.7199   -0.1684   62.8859 H       1  ZINC001490207225    0.4200
     39 H39        -9.4453    1.3940   58.9135 H       1  ZINC001490207225    0.0900
     40 H40        -8.3872    0.0830   58.3072 H       1  ZINC001490207225    0.0800
     41 H41       -10.3833    2.7370   57.0784 H       1  ZINC001490207225    0.0700
     42 H42       -11.3889    1.9021   55.8701 H       1  ZINC001490207225    0.0600
     43 H43       -11.7613    1.7399   57.6030 H       1  ZINC001490207225    0.0600
     44 H44        -7.9754    0.3342   56.3563 H       1  ZINC001490207225    0.0800
     45 H45        -8.8233    1.6401   55.4799 H       1  ZINC001490207225    0.0900
     46 H46        -9.6096    1.7862   51.5439 H       1  ZINC001490207225    0.2000
@<TRIPOS>BOND
     1     1     2    1
     2     1    26    1
     3     1    27    1
     4     1    28    1
     5     2    25    1
     6     2     3    1
     7     3     4    2
     8     3    29    1
     9     4     5    1
    10     4    24    1
    11     5     6    2
    12     5     7   am
    13     7    23    1
    14     7     8    1
    15     8     9    1
    16     8    30    1
    17     8    31    1
    18     9    10    1
    19     9    21    1
    20     9    11    1
    21    11    12    1
    22    11    32    1
    23    11    33    1
    24    12    13   am
    25    12    20    1
    26    13    14    2
    27    13    15    1
    28    15    16    1
    29    15    34    1
    30    15    35    1
    31    16    17   am
    32    16    36    1
    33    17    18   am
    34    17    19    2
    35    18    37    1
    36    18    38    1
    37    20    21    1
    38    20    39    1
    39    20    40    1
    40    21    22    1
    41    21    23    1
    42    22    41    1
    43    22    42    1
    44    22    43    1
    45    23    44    1
    46    23    45    1
    47    24    25    2
    48    24    46    1
@<TRIPOS>SUBSTRUCTURE
     1 ZINC001490207225        1 TEMP              0 ****  ****    0 ROOT


##########                                Name:    ZINC000970996691
##########                DOCK_Rotatable_Bonds:                   7
##########                         Heavy_Atoms:                  24
##########                    Molecular_Weight:             334.462
##########                DOCK_Rotatable_Bonds:                   7
##########                       Formal_Charge:          -0.0199999
##########                     HBond_Acceptors:                   6
##########                        HBond_Donors:                   0
##########                         Heavy_Atoms:                  24
##########                          Grid_Score:          -30.482033
##########                     Grid_vdw_energy:          -30.104927
##########                      Grid_es_energy:           -0.377106
##########           Internal_energy_repulsive:           14.526272

@<TRIPOS>MOLECULE
ZINC000970996691
 54 56 1 0 0
SMALL
USER_CHARGES


@<TRIPOS>ATOM
      1 C1         -8.1019   -0.0887   66.3171 C.3     1  ZINC000970996691   -0.1500
      2 C2         -8.4913    1.2839   65.7648 C.3     1  ZINC000970996691   -0.1200
      3 C3        -10.0141    1.3721   65.6451 C.3     1  ZINC000970996691   -0.0300
      4 C4        -10.4491    0.7860   64.3267 C.2     1  ZINC000970996691    0.1800
      5 N5         -9.7291    0.0313   63.5320 N.2     1  ZINC000970996691   -0.4700
      6 C6        -10.5231   -0.2516   62.4839 C.2     1  ZINC000970996691    0.1800
      7 C7        -10.1568   -1.0939   61.2892 C.3     1  ZINC000970996691    0.1500
      8 N8        -10.0501   -0.2375   60.1005 N.3     1  ZINC000970996691   -0.5200
      9 C9         -8.9855    0.7612   60.2651 C.3     1  ZINC000970996691    0.0200
     10 C10        -9.8348   -1.0416   58.8900 C.3     1  ZINC000970996691    0.0700
     11 H11        -8.9200   -1.6286   58.9710 H       1  ZINC000970996691    0.0600
     12 C12       -11.0570   -1.9534   58.6035 C.3     1  ZINC000970996691   -0.1300
     13 C13       -10.9853   -2.1576   57.0755 C.3     1  ZINC000970996691    0.1000
     14 N14       -10.2038   -1.0419   56.5223 N.am    1  ZINC000970996691   -0.6200
     15 C15        -9.8977   -0.8661   55.2215 C.2     1  ZINC000970996691    0.5300
     16 O16       -10.2760   -1.6695   54.3955 O.2     1  ZINC000970996691   -0.5300
     17 C17        -9.0854    0.3290   54.7936 C.3     1  ZINC000970996691   -0.1000
     18 C18        -8.4748    0.0638   53.4161 C.3     1  ZINC000970996691   -0.1100
     19 C19        -7.6501    1.2771   52.9816 C.3     1  ZINC000970996691   -0.1200
     20 C20        -8.5544    2.5091   52.9100 C.3     1  ZINC000970996691   -0.1200
     21 C21        -9.1652    2.7744   54.2875 C.3     1  ZINC000970996691   -0.1200
     22 C22        -9.9898    1.5611   54.7220 C.3     1  ZINC000970996691   -0.1000
     23 C23        -9.8103   -0.1464   57.6260 C.3     1  ZINC000970996691    0.1200
     24 N24       -11.6642    0.3346   62.6908 N.2     1  ZINC000970996691   -0.3800
     25 O25       -11.6444    0.9312   63.7468 O.3     1  ZINC000970996691    0.0800
     26 H26        -8.5521   -0.2260   67.3002 H       1  ZINC000970996691    0.0600
     27 H27        -8.4589   -0.8666   65.6422 H       1  ZINC000970996691    0.0600
     28 H28        -7.0170   -0.1517   66.4025 H       1  ZINC000970996691    0.0600
     29 H29        -8.1342    2.0618   66.4398 H       1  ZINC000970996691    0.0700
     30 H30        -8.0410    1.4211   64.7818 H       1  ZINC000970996691    0.0700
     31 H31       -10.4754    0.8148   66.4604 H       1  ZINC000970996691    0.1100
     32 H32       -10.3228    2.4161   65.6982 H       1  ZINC000970996691    0.1000
     33 H33        -9.2008   -1.5852   61.4704 H       1  ZINC000970996691    0.0700
     34 H34       -10.9274   -1.8475   61.1262 H       1  ZINC000970996691    0.1100
     35 H35        -8.0325    0.2547   60.4178 H       1  ZINC000970996691    0.0300
     36 H36        -8.9281    1.3818   59.3709 H       1  ZINC000970996691    0.0800
     37 H37        -9.2061    1.3884   61.1291 H       1  ZINC000970996691    0.0700
     38 H38       -10.9585   -2.9056   59.1248 H       1  ZINC000970996691    0.0800
     39 H39       -11.9848   -1.4539   58.8827 H       1  ZINC000970996691    0.0900
     40 H40       -10.4921   -3.1032   56.8506 H       1  ZINC000970996691    0.0700
     41 H41       -11.9901   -2.1516   56.6531 H       1  ZINC000970996691    0.0700
     42 H42        -8.2888    0.5045   55.5165 H       1  ZINC000970996691    0.0900
     43 H43        -7.8305   -0.8140   53.4671 H       1  ZINC000970996691    0.0700
     44 H44        -9.2715   -0.1118   52.6931 H       1  ZINC000970996691    0.0700
     45 H45        -6.8535    1.4527   53.7045 H       1  ZINC000970996691    0.0600
     46 H46        -7.2151    1.0881   52.0002 H       1  ZINC000970996691    0.0700
     47 H47        -7.9669    3.3736   52.6005 H       1  ZINC000970996691    0.0600
     48 H48        -9.3511    2.3336   52.1871 H       1  ZINC000970996691    0.0600
     49 H49        -8.3685    2.9500   55.0104 H       1  ZINC000970996691    0.0600
     50 H50        -9.8093    3.6522   54.2365 H       1  ZINC000970996691    0.0700
     51 H51       -10.7865    1.3855   53.9991 H       1  ZINC000970996691    0.0800
     52 H52       -10.4248    1.7500   55.7034 H       1  ZINC000970996691    0.0600
     53 H53       -10.5259    0.6696   57.7259 H       1  ZINC000970996691    0.0800
     54 H54        -8.8074    0.2458   57.4571 H       1  ZINC000970996691    0.0800
@<TRIPOS>BOND
     1     1     2    1
     2     1    26    1
     3     1    27    1
     4     1    28    1
     5     2     3    1
     6     2    29    1
     7     2    30    1
     8     3     4    1
     9     3    31    1
    10     3    32    1
    11     4    25    1
    12     4     5    2
    13     5     6    1
    14     6     7    1
    15     6    24    2
    16     7     8    1
    17     7    33    1
    18     7    34    1
    19     8     9    1
    20     8    10    1
    21     9    35    1
    22     9    36    1
    23     9    37    1
    24    10    11    1
    25    10    23    1
    26    10    12    1
    27    12    13    1
    28    12    38    1
    29    12    39    1
    30    13    14    1
    31    13    40    1
    32    13    41    1
    33    14    15   am
    34    14    23    1
    35    15    16    2
    36    15    17    1
    37    17    22    1
    38    17    18    1
    39    17    42    1
    40    18    19    1
    41    18    43    1
    42    18    44    1
    43    19    20    1
    44    19    45    1
    45    19    46    1
    46    20    21    1
    47    20    47    1
    48    20    48    1
    49    21    22    1
    50    21    49    1
    51    21    50    1
    52    22    51    1
    53    22    52    1
    54    23    53    1
    55    23    54    1
    56    24    25    1
@<TRIPOS>SUBSTRUCTURE
     1 ZINC000970996691        1 TEMP              0 ****  ****    0 ROOT


##########                                Name:    ZINC000995593866
##########                DOCK_Rotatable_Bonds:                   7
##########                         Heavy_Atoms:                  24
##########                    Molecular_Weight:             342.389
##########                DOCK_Rotatable_Bonds:                   7
##########                       Formal_Charge:                0.03
##########                     HBond_Acceptors:                   8
##########                        HBond_Donors:                   1
##########                         Heavy_Atoms:                  24
##########                          Grid_Score:          -30.469501
##########                     Grid_vdw_energy:          -30.662062
##########                      Grid_es_energy:            0.192560
##########           Internal_energy_repulsive:            8.890877

@<TRIPOS>MOLECULE
ZINC000995593866
 48 50 1 0 0
SMALL
USER_CHARGES


@<TRIPOS>ATOM
      1 C1         -7.5366    2.2928   58.1613 C.3     1  ZINC000995593866   -0.1400
      2 C2         -8.8465    1.9999   58.8958 C.3     1  ZINC000995593866   -0.0800
      3 C3         -9.1833    3.1420   59.8566 C.3     1  ZINC000995593866   -0.1400
      4 C4         -9.9939    1.7907   57.8842 C.3     1  ZINC000995593866    0.1200
      5 N5        -10.0613    0.3231   57.6937 N.am    1  ZINC000995593866   -0.6300
      6 C6        -10.2765   -0.3528   56.5477 C.2     1  ZINC000995593866    0.5400
      7 O7        -10.3021   -1.5653   56.5545 O.2     1  ZINC000995593866   -0.5300
      8 C8        -10.4851    0.3981   55.2579 C.3     1  ZINC000995593866   -0.1300
      9 C9        -10.6130   -0.5975   54.1031 C.3     1  ZINC000995593866   -0.1000
     10 C10       -10.9374    0.0636   52.7530 C.3     1  ZINC000995593866   -0.1300
     11 C11        -9.9545   -0.9338   52.1176 C.3     1  ZINC000995593866   -0.1400
     12 C12        -9.2634   -1.0059   53.4895 C.3     1  ZINC000995593866   -0.1400
     13 C13        -9.8387   -0.2330   59.0486 C.3     1  ZINC000995593866    0.1100
     14 C14        -8.7441    0.6656   59.6636 C.3     1  ZINC000995593866    0.0800
     15 H15        -7.7608    0.2188   59.5175 H       1  ZINC000995593866    0.0700
     16 N16        -9.0008    0.8764   61.0946 N.3     1  ZINC000995593866   -0.6800
     17 C17        -8.7663   -0.3562   61.8586 C.3     1  ZINC000995593866    0.1500
     18 C18        -8.4304   -0.0066   63.2854 C.2     1  ZINC000995593866    0.1900
     19 N19        -9.2719    0.3818   64.2131 N.2     1  ZINC000995593866   -0.4300
     20 C20        -8.5286    0.5789   65.3167 C.2     1  ZINC000995593866    0.0900
     21 C21        -9.0328    1.0328   66.6622 C.3     1  ZINC000995593866    0.3800
     22 F22        -8.8839    2.4195   66.7724 F       1  ZINC000995593866   -0.1800
     23 F23       -10.3848    0.6973   66.7911 F       1  ZINC000995593866   -0.1700
     24 N24        -7.2960    0.3053   65.0094 N.2     1  ZINC000995593866   -0.3400
     25 O25        -7.2189   -0.0386   63.8487 O.3     1  ZINC000995593866    0.1000
     26 H26        -7.3297    1.4902   57.4534 H       1  ZINC000995593866    0.0600
     27 H27        -7.6245    3.2373   57.6245 H       1  ZINC000995593866    0.0600
     28 H28        -6.7225    2.3594   58.8830 H       1  ZINC000995593866    0.0600
     29 H29        -9.2778    4.0722   59.2964 H       1  ZINC000995593866    0.0700
     30 H30       -10.1240    2.9255   60.3629 H       1  ZINC000995593866    0.0700
     31 H31        -8.3878    3.2419   60.5952 H       1  ZINC000995593866    0.0600
     32 H32       -10.9330    2.1646   58.2920 H       1  ZINC000995593866    0.0800
     33 H33        -9.7639    2.2862   56.9410 H       1  ZINC000995593866    0.0900
     34 H34       -11.3957    0.9932   55.3271 H       1  ZINC000995593866    0.0900
     35 H35        -9.6342    1.0553   55.0783 H       1  ZINC000995593866    0.0900
     36 H36       -11.2575   -1.4431   54.3428 H       1  ZINC000995593866    0.1000
     37 H37       -11.9702   -0.0782   52.4345 H       1  ZINC000995593866    0.0700
     38 H38       -10.6112    1.1014   52.6854 H       1  ZINC000995593866    0.0800
     39 H39       -10.4195   -1.8714   51.8132 H       1  ZINC000995593866    0.0800
     40 H40        -9.3317   -0.4962   51.3374 H       1  ZINC000995593866    0.0700
     41 H41        -8.4794   -0.2604   53.6231 H       1  ZINC000995593866    0.0800
     42 H42        -8.9445   -2.0110   53.7655 H       1  ZINC000995593866    0.0700
     43 H43       -10.7536   -0.1752   59.6383 H       1  ZINC000995593866    0.0900
     44 H44        -9.4917   -1.2643   58.9839 H       1  ZINC000995593866    0.0800
     45 H45        -8.4429    1.6363   61.4539 H       1  ZINC000995593866    0.3600
     46 H46        -9.6645   -0.9733   61.8375 H       1  ZINC000995593866    0.1200
     47 H47        -7.9369   -0.9066   61.4145 H       1  ZINC000995593866    0.0800
     48 H48        -8.4601    0.5423   67.4493 H       1  ZINC000995593866    0.1500
@<TRIPOS>BOND
     1     1     2    1
     2     1    26    1
     3     1    27    1
     4     1    28    1
     5     2    14    1
     6     2     3    1
     7     2     4    1
     8     3    29    1
     9     3    30    1
    10     3    31    1
    11     4     5    1
    12     4    32    1
    13     4    33    1
    14     5     6   am
    15     5    13    1
    16     6     7    2
    17     6     8    1
    18     8     9    1
    19     8    34    1
    20     8    35    1
    21     9    12    1
    22     9    10    1
    23     9    36    1
    24    10    11    1
    25    10    37    1
    26    10    38    1
    27    11    12    1
    28    11    39    1
    29    11    40    1
    30    12    41    1
    31    12    42    1
    32    13    14    1
    33    13    43    1
    34    13    44    1
    35    14    15    1
    36    14    16    1
    37    16    17    1
    38    16    45    1
    39    17    18    1
    40    17    46    1
    41    17    47    1
    42    18    25    1
    43    18    19    2
    44    19    20    1
    45    20    21    1
    46    20    24    2
    47    21    22    1
    48    21    23    1
    49    21    48    1
    50    24    25    1
@<TRIPOS>SUBSTRUCTURE
     1 ZINC000995593866        1 TEMP              0 ****  ****    0 ROOT


##########                                Name:    ZINC000621594459
##########                DOCK_Rotatable_Bonds:                  10
##########                         Heavy_Atoms:                  25
##########                    Molecular_Weight:             389.497
##########                DOCK_Rotatable_Bonds:                  10
##########                       Formal_Charge:         -7.7486e-07
##########                     HBond_Acceptors:                  10
##########                        HBond_Donors:                   3
##########                         Heavy_Atoms:                  25
##########                          Grid_Score:          -30.431677
##########                     Grid_vdw_energy:          -29.584431
##########                      Grid_es_energy:           -0.847247
##########           Internal_energy_repulsive:           18.364473

@<TRIPOS>MOLECULE
ZINC000621594459
 48 49 1 0 0
SMALL
USER_CHARGES


@<TRIPOS>ATOM
      1 C1        -15.8091    0.7336   60.8719 C.3     1  ZINC000621594459   -0.1600
      2 C2        -14.3905    0.1620   60.9141 C.3     1  ZINC000621594459    0.1300
      3 C3        -13.5222    1.0199   61.8365 C.3     1  ZINC000621594459   -0.1800
      4 N4        -14.4325   -1.2117   61.4213 N.am    1  ZINC000621594459   -1.1100
      5 S5        -14.6136   -2.4777   60.3692 S.o2    1  ZINC000621594459    2.6200
      6 O6        -14.5170   -3.6329   61.1910 O.2     1  ZINC000621594459   -0.9500
      7 O7        -15.8103   -2.1784   59.6637 O.2     1  ZINC000621594459   -0.9400
      8 C8        -13.1781   -2.3588   59.2667 C.3     1  ZINC000621594459   -0.6600
      9 C9        -11.8926   -2.4653   60.0897 C.3     1  ZINC000621594459    0.1300
     10 N10       -11.4745   -1.1280   60.5174 N.am    1  ZINC000621594459   -0.7200
     11 C11       -10.1739   -0.8758   60.7651 C.2     1  ZINC000621594459    0.5600
     12 O12        -9.3477   -1.7574   60.6321 O.2     1  ZINC000621594459   -0.5200
     13 C13        -9.7520    0.4734   61.1984 C.ar    1  ZINC000621594459   -0.1500
     14 C14        -8.9183    1.2419   60.3849 C.ar    1  ZINC000621594459   -0.0300
     15 C15        -8.5286    2.5005   60.7949 C.ar    1  ZINC000621594459   -0.1400
     16 C16        -8.9622    3.0005   62.0098 C.ar    1  ZINC000621594459    0.0100
     17 C17        -9.7885    2.2434   62.8214 C.ar    1  ZINC000621594459   -0.6800
     18 S18       -10.3344    2.8895   64.3671 S.o2    1  ZINC000621594459    2.7000
     19 O19        -9.5245    4.0259   64.6356 O.2     1  ZINC000621594459   -0.9400
     20 O20       -11.7528    2.9441   64.3007 O.2     1  ZINC000621594459   -0.9500
     21 N21        -9.9635    1.7665   65.5263 N.am    1  ZINC000621594459   -1.0900
     22 C22        -8.5701    1.3684   65.7412 C.3     1  ZINC000621594459    0.0800
     23 C23        -8.3168    0.0698   66.5095 C.3     1  ZINC000621594459   -0.1800
     24 C24        -8.0678    0.1270   65.0011 C.3     1  ZINC000621594459   -0.1900
     25 C25       -10.1904    0.9862   62.4205 C.ar    1  ZINC000621594459    0.0400
     26 H26       -15.7779    1.7558   60.4946 H       1  ZINC000621594459    0.0700
     27 H27       -16.4277    0.1224   60.2148 H       1  ZINC000621594459    0.0700
     28 H28       -16.2323    0.7299   61.8764 H       1  ZINC000621594459    0.0600
     29 H29       -13.9673    0.1657   59.9096 H       1  ZINC000621594459    0.0900
     30 H30       -13.9454    1.0162   62.8410 H       1  ZINC000621594459    0.0700
     31 H31       -12.5116    0.6126   61.8667 H       1  ZINC000621594459    0.0600
     32 H32       -13.4910    2.0421   61.4592 H       1  ZINC000621594459    0.0700
     33 H33       -14.3542   -1.3798   62.3735 H       1  ZINC000621594459    0.4200
     34 H34       -13.2113   -3.1690   58.5383 H       1  ZINC000621594459    0.1400
     35 H35       -13.1979   -1.4013   58.7463 H       1  ZINC000621594459    0.1400
     36 H36       -12.0731   -3.0873   60.9665 H       1  ZINC000621594459    0.0900
     37 H37       -11.1077   -2.9142   59.4811 H       1  ZINC000621594459    0.0900
     38 H38       -12.1335   -0.4241   60.6223 H       1  ZINC000621594459    0.4000
     39 H39        -8.5787    0.8525   59.4365 H       1  ZINC000621594459    0.1300
     40 H40        -7.8836    3.0963   60.1663 H       1  ZINC000621594459    0.1400
     41 H41        -8.6540    3.9860   62.3262 H       1  ZINC000621594459    0.1500
     42 H42       -10.6688    1.3723   66.0630 H       1  ZINC000621594459    0.4200
     43 H43        -7.8648    2.1864   65.8883 H       1  ZINC000621594459    0.1400
     44 H44        -7.4448    0.0333   67.1626 H       1  ZINC000621594459    0.1100
     45 H45        -9.1869   -0.4883   66.8552 H       1  ZINC000621594459    0.1000
     46 H46        -8.7742   -0.3934   64.3543 H       1  ZINC000621594459    0.1000
     47 H47        -7.0321    0.1282   64.6616 H       1  ZINC000621594459    0.1000
     48 H48       -10.8357    0.3964   63.0546 H       1  ZINC000621594459    0.1600
@<TRIPOS>BOND
     1     1     2    1
     2     1    26    1
     3     1    27    1
     4     1    28    1
     5     2     3    1
     6     2     4    1
     7     2    29    1
     8     3    30    1
     9     3    31    1
    10     3    32    1
    11     4     5   am
    12     4    33    1
    13     5     6    2
    14     5     7    2
    15     5     8    1
    16     8     9    1
    17     8    34    1
    18     8    35    1
    19     9    10    1
    20     9    36    1
    21     9    37    1
    22    10    11   am
    23    10    38    1
    24    11    12    2
    25    11    13    1
    26    13    25   ar
    27    13    14   ar
    28    14    15   ar
    29    14    39    1
    30    15    16   ar
    31    15    40    1
    32    16    17   ar
    33    16    41    1
    34    17    18    1
    35    17    25   ar
    36    18    19    2
    37    18    20    2
    38    18    21   am
    39    21    22    1
    40    21    42    1
    41    22    24    1
    42    22    23    1
    43    22    43    1
    44    23    24    1
    45    23    44    1
    46    23    45    1
    47    24    46    1
    48    24    47    1
    49    25    48    1
@<TRIPOS>SUBSTRUCTURE
     1 ZINC000621594459        1 TEMP              0 ****  ****    0 ROOT


##########                                Name:    ZINC000410354665
##########                DOCK_Rotatable_Bonds:                   7
##########                         Heavy_Atoms:                  29
##########                    Molecular_Weight:             417.889
##########                DOCK_Rotatable_Bonds:                   7
##########                       Formal_Charge:        -3.72529e-08
##########                     HBond_Acceptors:                   7
##########                        HBond_Donors:                   1
##########                         Heavy_Atoms:                  29
##########                          Grid_Score:          -30.416527
##########                     Grid_vdw_energy:          -29.425678
##########                      Grid_es_energy:           -0.990848
##########           Internal_energy_repulsive:           16.260221

@<TRIPOS>MOLECULE
ZINC000410354665
 53 56 1 0 0
SMALL
USER_CHARGES


@<TRIPOS>ATOM
      1 C1         -0.3882    2.4240   61.6572 C.3     1  ZINC000410354665    0.0200
      2 O2          0.2987    2.4565   60.4046 O.3     1  ZINC000410354665   -0.3000
      3 C3         -0.4204    2.8400   59.3158 C.ar    1  ZINC000410354665    0.0900
      4 C4         -1.7681    3.1148   59.4403 C.ar    1  ZINC000410354665   -0.1100
      5 C5         -2.5041    3.5092   58.3193 C.ar    1  ZINC000410354665   -0.1400
      6 C6         -3.9447    3.8046   58.4469 C.2     1  ZINC000410354665    0.5700
      7 O7         -4.3498    4.4607   59.3870 O.2     1  ZINC000410354665   -0.5300
      8 N8         -4.8109    3.3470   57.5213 N.am    1  ZINC000410354665   -0.7200
      9 C9         -6.2404    3.6417   57.6470 C.3     1  ZINC000410354665    0.1700
     10 C10        -7.0371    2.5769   56.9381 C.ar    1  ZINC000410354665   -0.1000
     11 C11        -7.8311    1.7103   57.6654 C.ar    1  ZINC000410354665   -0.0900
     12 C12        -8.5619    0.7303   57.0183 C.ar    1  ZINC000410354665   -0.0300
     13 Cl13       -9.5578   -0.3567   57.9351 Cl      1  ZINC000410354665   -0.0400
     14 C14        -8.5000    0.6157   55.6368 C.ar    1  ZINC000410354665    0.0700
     15 O15        -9.2187   -0.3585   55.0141 O.3     1  ZINC000410354665   -0.2900
     16 C16        -9.4222   -0.2069   53.6050 C.3     1  ZINC000410354665    0.0200
     17 C17        -8.0804    0.1712   52.9634 C.3     1  ZINC000410354665    0.0200
     18 O18        -7.6331    1.3984   53.5499 O.3     1  ZINC000410354665   -0.3000
     19 C19        -7.7045    1.4898   54.9060 C.ar    1  ZINC000410354665    0.0600
     20 C20        -6.9769    2.4722   55.5611 C.ar    1  ZINC000410354665   -0.0900
     21 C21        -1.8734    3.6235   57.0784 C.ar    1  ZINC000410354665   -0.0800
     22 C22        -0.5282    3.3473   56.9609 C.ar    1  ZINC000410354665   -0.1900
     23 C23         0.2042    2.9613   58.0750 C.ar    1  ZINC000410354665    0.1400
     24 O24         1.5292    2.6903   57.9541 O.3     1  ZINC000410354665   -0.2900
     25 C25         2.2110    3.2702   56.8402 C.3     1  ZINC000410354665    0.0700
     26 C26         2.2773    4.8107   56.9873 C.3     1  ZINC000410354665   -0.1500
     27 C27         3.4969    5.1857   56.1091 C.3     1  ZINC000410354665   -0.1200
     28 C28         4.5064    4.0459   56.3570 C.3     1  ZINC000410354665   -0.1200
     29 C29         3.6888    2.8280   56.8218 C.3     1  ZINC000410354665   -0.1200
     30 H30        -0.7650    3.4196   61.8910 H       1  ZINC000410354665    0.0600
     31 H31        -1.2222    1.7249   61.5961 H       1  ZINC000410354665    0.0600
     32 H32         0.2988    2.1024   62.4400 H       1  ZINC000410354665    0.1000
     33 H33        -2.2523    3.0249   60.4014 H       1  ZINC000410354665    0.1500
     34 H34        -4.4879    2.8226   56.7721 H       1  ZINC000410354665    0.4000
     35 H35        -6.5163    3.6602   58.7014 H       1  ZINC000410354665    0.0800
     36 H36        -6.4521    4.6125   57.1990 H       1  ZINC000410354665    0.0900
     37 H37        -7.8806    1.7983   58.7407 H       1  ZINC000410354665    0.1500
     38 H38        -9.7802   -1.1457   53.1823 H       1  ZINC000410354665    0.1300
     39 H39       -10.1523    0.5814   53.4219 H       1  ZINC000410354665    0.0800
     40 H40        -7.3486   -0.6144   53.1516 H       1  ZINC000410354665    0.0800
     41 H41        -8.2108    0.3031   51.8894 H       1  ZINC000410354665    0.1300
     42 H42        -6.3595    3.1539   54.9949 H       1  ZINC000410354665    0.1400
     43 H43        -2.4400    3.9281   56.2109 H       1  ZINC000410354665    0.1300
     44 H44        -0.0419    3.4359   56.0007 H       1  ZINC000410354665    0.1400
     45 H45         1.7188    2.9949   55.9074 H       1  ZINC000410354665    0.0800
     46 H46         1.3684    5.2748   56.6045 H       1  ZINC000410354665    0.0700
     47 H47         2.4482    5.0925   58.0263 H       1  ZINC000410354665    0.0800
     48 H48         3.2130    5.2219   55.0574 H       1  ZINC000410354665    0.0700
     49 H49         3.9152    6.1413   56.4254 H       1  ZINC000410354665    0.0700
     50 H50         5.0367    3.8096   55.4344 H       1  ZINC000410354665    0.0700
     51 H51         5.2157    4.3371   57.1318 H       1  ZINC000410354665    0.0700
     52 H52         4.0013    2.5282   57.8221 H       1  ZINC000410354665    0.0800
     53 H53         3.8224    2.0006   56.1249 H       1  ZINC000410354665    0.0700
@<TRIPOS>BOND
     1     1     2    1
     2     1    30    1
     3     1    31    1
     4     1    32    1
     5     2     3    1
     6     3    23   ar
     7     3     4   ar
     8     4     5   ar
     9     4    33    1
    10     5     6    1
    11     5    21   ar
    12     6     7    2
    13     6     8   am
    14     8     9    1
    15     8    34    1
    16     9    10    1
    17     9    35    1
    18     9    36    1
    19    10    20   ar
    20    10    11   ar
    21    11    12   ar
    22    11    37    1
    23    12    13    1
    24    12    14   ar
    25    14    19   ar
    26    14    15    1
    27    15    16    1
    28    16    17    1
    29    16    38    1
    30    16    39    1
    31    17    18    1
    32    17    40    1
    33    17    41    1
    34    18    19    1
    35    19    20   ar
    36    20    42    1
    37    21    22   ar
    38    21    43    1
    39    22    23   ar
    40    22    44    1
    41    23    24    1
    42    24    25    1
    43    25    29    1
    44    25    26    1
    45    25    45    1
    46    26    27    1
    47    26    46    1
    48    26    47    1
    49    27    28    1
    50    27    48    1
    51    27    49    1
    52    28    29    1
    53    28    50    1
    54    28    51    1
    55    29    52    1
    56    29    53    1
@<TRIPOS>SUBSTRUCTURE
     1 ZINC000410354665        1 TEMP              0 ****  ****    0 ROOT


##########                                Name:    ZINC000474368324
##########                DOCK_Rotatable_Bonds:                   9
##########                         Heavy_Atoms:                  27
##########                    Molecular_Weight:             417.332
##########                DOCK_Rotatable_Bonds:                   9
##########                       Formal_Charge:        -1.63913e-07
##########                     HBond_Acceptors:                   8
##########                        HBond_Donors:                   1
##########                         Heavy_Atoms:                  27
##########                          Grid_Score:          -30.368050
##########                     Grid_vdw_energy:          -28.731665
##########                      Grid_es_energy:           -1.636386
##########           Internal_energy_repulsive:           25.408621

@<TRIPOS>MOLECULE
ZINC000474368324
 53 54 1 0 0
SMALL
USER_CHARGES


@<TRIPOS>ATOM
      1 C1         -8.5864    4.6544   48.9026 C.3     1  ZINC000474368324   -0.1500
      2 C2         -7.5085    5.3277   49.7545 C.3     1  ZINC000474368324    0.0600
      3 O3         -7.0160    4.3866   50.7445 O.3     1  ZINC000474368324   -0.3300
      4 C4         -7.7744    4.1973   51.8357 C.2     1  ZINC000474368324    0.4700
      5 O5         -8.7825    4.8452   51.9906 O.2     1  ZINC000474368324   -0.5100
      6 C6         -7.3686    3.1767   52.8676 C.3     1  ZINC000474368324   -0.0400
      7 C7         -5.8574    2.9496   52.7932 C.3     1  ZINC000474368324    0.0600
      8 O8         -5.1766    4.1563   53.1427 O.3     1  ZINC000474368324   -0.3700
      9 C9         -3.7543    4.0747   53.0307 C.3     1  ZINC000474368324    0.0300
     10 C10        -7.7392    3.6866   54.2622 C.3     1  ZINC000474368324   -0.1200
     11 C11        -7.2942    2.6624   55.3109 C.3     1  ZINC000474368324    0.1100
     12 N12        -7.8747    1.3559   54.9721 N.am    1  ZINC000474368324   -0.6300
     13 C13        -8.5950    0.6683   55.8801 C.2     1  ZINC000474368324    0.7100
     14 O14        -9.0702   -0.4120   55.5875 O.2     1  ZINC000474368324   -0.5800
     15 N15        -8.7887    1.1780   57.1127 N.am    1  ZINC000474368324   -0.7400
     16 C16        -9.5717    0.4305   58.0998 C.3     1  ZINC000474368324    0.2000
     17 H17        -9.3214   -0.6284   58.0359 H       1  ZINC000474368324    0.1100
     18 C18       -11.0634    0.6199   57.8168 C.3     1  ZINC000474368324   -0.1600
     19 C19        -9.2542    0.9392   59.4824 C.ar    1  ZINC000474368324   -0.0700
     20 C20        -8.9991    2.2826   59.6828 C.ar    1  ZINC000474368324   -0.1000
     21 C21        -8.7082    2.7502   60.9511 C.ar    1  ZINC000474368324   -0.0900
     22 C22        -8.6721    1.8747   62.0197 C.ar    1  ZINC000474368324   -0.1000
     23 C23        -8.9271    0.5295   61.8210 C.ar    1  ZINC000474368324   -0.0300
     24 Cl24       -8.8819   -0.5706   63.1631 Cl      1  ZINC000474368324   -0.0400
     25 C25        -9.2236    0.0622   60.5519 C.ar    1  ZINC000474368324   -0.0300
     26 Cl26       -9.5445   -1.6253   60.3009 Cl      1  ZINC000474368324   -0.0400
     27 C27        -7.6554    0.8135   53.6243 C.3     1  ZINC000474368324    0.1300
     28 C28        -8.0964    1.8584   52.5945 C.3     1  ZINC000474368324   -0.1200
     29 H29        -8.9561    5.3609   48.1595 H       1  ZINC000474368324    0.0800
     30 H30        -8.1615    3.7862   48.3987 H       1  ZINC000474368324    0.0700
     31 H31        -9.4094    4.3364   49.5426 H       1  ZINC000474368324    0.0700
     32 H32        -6.6855    5.6457   49.1145 H       1  ZINC000474368324    0.0700
     33 H33        -7.9334    6.1959   50.2584 H       1  ZINC000474368324    0.0700
     34 H34        -5.5742    2.1585   53.4874 H       1  ZINC000474368324    0.0700
     35 H35        -5.5833    2.6585   51.7791 H       1  ZINC000474368324    0.0600
     36 H36        -3.3821    3.2923   53.6921 H       1  ZINC000474368324    0.0400
     37 H37        -3.4838    3.8394   52.0014 H       1  ZINC000474368324    0.0400
     38 H38        -3.3121    5.0300   53.3132 H       1  ZINC000474368324    0.0900
     39 H39        -7.2389    4.6372   54.4469 H       1  ZINC000474368324    0.1000
     40 H40        -8.8186    3.8250   54.3240 H       1  ZINC000474368324    0.0800
     41 H41        -6.2065    2.5897   55.3121 H       1  ZINC000474368324    0.0800
     42 H42        -7.6429    2.9728   56.2958 H       1  ZINC000474368324    0.0800
     43 H43        -8.4095    2.0398   57.3461 H       1  ZINC000474368324    0.3900
     44 H44       -11.3137    1.6789   57.8808 H       1  ZINC000474368324    0.0600
     45 H45       -11.2931    0.2521   56.8168 H       1  ZINC000474368324    0.0700
     46 H46       -11.6460    0.0638   58.5513 H       1  ZINC000474368324    0.0700
     47 H47        -9.0269    2.9675   58.8482 H       1  ZINC000474368324    0.1300
     48 H48        -8.5088    3.8002   61.1065 H       1  ZINC000474368324    0.1400
     49 H49        -8.4444    2.2405   63.0101 H       1  ZINC000474368324    0.1500
     50 H50        -6.5973    0.5900   53.4881 H       1  ZINC000474368324    0.0700
     51 H51        -8.2424   -0.0960   53.4964 H       1  ZINC000474368324    0.1100
     52 H52        -9.1724    2.0140   52.6721 H       1  ZINC000474368324    0.0900
     53 H53        -7.8503    1.5079   51.5922 H       1  ZINC000474368324    0.0900
@<TRIPOS>BOND
     1     1     2    1
     2     1    29    1
     3     1    30    1
     4     1    31    1
     5     2     3    1
     6     2    32    1
     7     2    33    1
     8     3     4    1
     9     4     5    2
    10     4     6    1
    11     6    28    1
    12     6     7    1
    13     6    10    1
    14     7     8    1
    15     7    34    1
    16     7    35    1
    17     8     9    1
    18     9    36    1
    19     9    37    1
    20     9    38    1
    21    10    11    1
    22    10    39    1
    23    10    40    1
    24    11    12    1
    25    11    41    1
    26    11    42    1
    27    12    13   am
    28    12    27    1
    29    13    14    2
    30    13    15   am
    31    15    16    1
    32    15    43    1
    33    16    17    1
    34    16    18    1
    35    16    19    1
    36    18    44    1
    37    18    45    1
    38    18    46    1
    39    19    25   ar
    40    19    20   ar
    41    20    21   ar
    42    20    47    1
    43    21    22   ar
    44    21    48    1
    45    22    23   ar
    46    22    49    1
    47    23    24    1
    48    23    25   ar
    49    25    26    1
    50    27    28    1
    51    27    50    1
    52    27    51    1
    53    28    52    1
    54    28    53    1
@<TRIPOS>SUBSTRUCTURE
     1 ZINC000474368324        1 TEMP              0 ****  ****    0 ROOT


##########                                Name:    ZINC000542980334
##########                DOCK_Rotatable_Bonds:                   6
##########                         Heavy_Atoms:                  27
##########                    Molecular_Weight:             404.795
##########                DOCK_Rotatable_Bonds:                   6
##########                       Formal_Charge:           0.0300001
##########                     HBond_Acceptors:                  10
##########                        HBond_Donors:                   1
##########                         Heavy_Atoms:                  27
##########                          Grid_Score:          -30.361727
##########                     Grid_vdw_energy:          -29.790995
##########                      Grid_es_energy:           -0.570731
##########           Internal_energy_repulsive:           11.508336

@<TRIPOS>MOLECULE
ZINC000542980334
 44 46 1 0 0
SMALL
USER_CHARGES


@<TRIPOS>ATOM
      1 O1         -8.7380    2.1834   58.1159 O.2     1  ZINC000542980334   -0.5800
      2 C2         -9.3690    1.1446   58.0823 C.2     1  ZINC000542980334    0.7100
      3 N3         -9.8950    0.7131   56.9189 N.am    1  ZINC000542980334   -0.7400
      4 C4         -9.7115    1.4985   55.6959 C.3     1  ZINC000542980334    0.1800
      5 C5         -9.8390    0.5963   54.4955 C.ar    1  ZINC000542980334   -0.1400
      6 C6        -11.0848    0.1396   54.1019 C.ar    1  ZINC000542980334    0.1300
      7 F7        -12.1873    0.5022   54.7935 F       1  ZINC000542980334   -0.1200
      8 C8        -11.2007   -0.6890   52.9983 C.ar    1  ZINC000542980334   -0.1500
      9 C9        -10.0729   -1.0593   52.2908 C.ar    1  ZINC000542980334   -0.0700
     10 C10        -8.8286   -0.6031   52.6840 C.ar    1  ZINC000542980334   -0.1200
     11 C11        -8.7116    0.2289   53.7831 C.ar    1  ZINC000542980334    0.0100
     12 Cl12       -7.1486    0.8017   54.2757 Cl      1  ZINC000542980334   -0.0400
     13 N13        -9.5379    0.4220   59.2074 N.am    1  ZINC000542980334   -0.6300
     14 C14       -10.2928   -0.8381   59.1815 C.3     1  ZINC000542980334    0.1100
     15 C15       -11.3935   -0.7754   60.2450 C.3     1  ZINC000542980334   -0.1300
     16 C16       -10.7678   -0.4454   61.6021 C.3     1  ZINC000542980334   -0.1300
     17 C17       -10.0855    0.9227   61.5319 C.3     1  ZINC000542980334    0.1400
     18 H18       -10.8176    1.6806   61.2532 H       1  ZINC000542980334    0.1100
     19 N19        -9.5148    1.2520   62.8404 N.pl3   1  ZINC000542980334   -0.3400
     20 C20        -9.2619    2.4930   63.3066 C.2     1  ZINC000542980334    0.0600
     21 C21        -8.7394    2.3684   64.5486 C.2     1  ZINC000542980334   -0.2300
     22 C22        -8.6707    1.0047   64.8518 C.2     1  ZINC000542980334   -0.0200
     23 C23        -8.1513    0.4100   66.1354 C.3     1  ZINC000542980334    0.5600
     24 F24        -7.9727    1.4255   67.0810 F       1  ZINC000542980334   -0.1700
     25 F25        -9.0717   -0.5243   66.6225 F       1  ZINC000542980334   -0.1700
     26 F26        -6.9273   -0.2232   65.8943 F       1  ZINC000542980334   -0.1600
     27 N27        -9.1408    0.3349   63.8309 N.2     1  ZINC000542980334   -0.2300
     28 C28        -8.9652    0.8763   60.4818 C.3     1  ZINC000542980334    0.1300
     29 H29       -10.3952   -0.1176   56.8913 H       1  ZINC000542980334    0.4000
     30 H30       -10.4720    2.2778   55.6471 H       1  ZINC000542980334    0.0900
     31 H31        -8.7223    1.9562   55.7030 H       1  ZINC000542980334    0.0900
     32 H32       -12.1725   -1.0461   52.6907 H       1  ZINC000542980334    0.1500
     33 H33       -10.1637   -1.7058   51.4305 H       1  ZINC000542980334    0.1500
     34 H34        -7.9478   -0.8934   52.1307 H       1  ZINC000542980334    0.1500
     35 H35       -10.7423   -0.9746   58.1978 H       1  ZINC000542980334    0.0800
     36 H36        -9.6226   -1.6702   59.3977 H       1  ZINC000542980334    0.0800
     37 H37       -12.1134   -0.0015   59.9784 H       1  ZINC000542980334    0.0800
     38 H38       -11.8993   -1.7393   60.3023 H       1  ZINC000542980334    0.0900
     39 H39       -11.5459   -0.4244   62.3652 H       1  ZINC000542980334    0.0800
     40 H40       -10.0303   -1.2065   61.8566 H       1  ZINC000542980334    0.0800
     41 H41        -9.4436    3.4195   62.7823 H       1  ZINC000542980334    0.1900
     42 H42        -8.4297    3.1787   65.1919 H       1  ZINC000542980334    0.1600
     43 H43        -8.1881    0.1844   60.8067 H       1  ZINC000542980334    0.0800
     44 H44        -8.5409    1.8725   60.3560 H       1  ZINC000542980334    0.1100
@<TRIPOS>BOND
     1     1     2    2
     2     2     3   am
     3     2    13   am
     4     3     4    1
     5     3    29    1
     6     4     5    1
     7     4    30    1
     8     4    31    1
     9     5    11   ar
    10     5     6   ar
    11     6     7    1
    12     6     8   ar
    13     8     9   ar
    14     8    32    1
    15     9    10   ar
    16     9    33    1
    17    10    11   ar
    18    10    34    1
    19    11    12    1
    20    13    28    1
    21    13    14    1
    22    14    15    1
    23    14    35    1
    24    14    36    1
    25    15    16    1
    26    15    37    1
    27    15    38    1
    28    16    17    1
    29    16    39    1
    30    16    40    1
    31    17    18    1
    32    17    19    1
    33    17    28    1
    34    19    27    1
    35    19    20    1
    36    20    21    2
    37    20    41    1
    38    21    22    1
    39    21    42    1
    40    22    23    1
    41    22    27    2
    42    23    24    1
    43    23    25    1
    44    23    26    1
    45    28    43    1
    46    28    44    1
@<TRIPOS>SUBSTRUCTURE
     1 ZINC000542980334        1 TEMP              0 ****  ****    0 ROOT


##########                                Name:    ZINC000076573199
##########                DOCK_Rotatable_Bonds:                  10
##########                         Heavy_Atoms:                  24
##########                    Molecular_Weight:             333.431
##########                DOCK_Rotatable_Bonds:                  10
##########                       Formal_Charge:          -0.0200009
##########                     HBond_Acceptors:                   6
##########                        HBond_Donors:                   3
##########                         Heavy_Atoms:                  24
##########                          Grid_Score:          -30.330856
##########                     Grid_vdw_energy:          -25.612209
##########                      Grid_es_energy:           -4.718647
##########           Internal_energy_repulsive:           18.733980

@<TRIPOS>MOLECULE
ZINC000076573199
 51 51 1 0 0
SMALL
USER_CHARGES


@<TRIPOS>ATOM
      1 C1         -1.2400    1.5264   64.5657 C.3     1  ZINC000076573199   -0.1500
      2 C2          0.2886    1.5953   64.5719 C.3     1  ZINC000076573199   -0.1200
      3 C3          0.8633    0.1858   64.4169 C.3     1  ZINC000076573199   -0.1000
      4 H4          0.3364   -0.3355   63.6178 H       1  ZINC000076573199    0.0700
      5 C5          0.6898   -0.5827   65.7284 C.3     1  ZINC000076573199   -0.1500
      6 C6          2.3511    0.2769   64.0721 C.3     1  ZINC000076573199   -0.1200
      7 C7          2.5561   -0.0815   62.5989 C.3     1  ZINC000076573199    0.1400
      8 H8          3.5682    0.1875   62.2968 H       1  ZINC000076573199    0.1000
      9 C9          2.3490   -1.5852   62.4062 C.3     1  ZINC000076573199   -0.1700
     10 N10         1.5900    0.6535   61.7786 N.am    1  ZINC000076573199   -0.6900
     11 C11         1.8497    1.9226   61.4064 C.2     1  ZINC000076573199    0.5100
     12 O12         2.8831    2.4570   61.7520 O.2     1  ZINC000076573199   -0.5100
     13 C13         0.8657    2.6713   60.5687 C.2     1  ZINC000076573199    0.5100
     14 O14         1.0955    3.8172   60.2408 O.2     1  ZINC000076573199   -0.5000
     15 N15        -0.2775    2.0747   60.1768 N.am    1  ZINC000076573199   -0.6400
     16 C16        -1.1980    2.7751   59.3931 C.ar    1  ZINC000076573199    0.1500
     17 C17        -2.1760    3.5549   59.9985 C.ar    1  ZINC000076573199   -0.1300
     18 C18        -3.0863    4.2481   59.2239 C.ar    1  ZINC000076573199   -0.0800
     19 C19        -3.0274    4.1686   57.8459 C.ar    1  ZINC000076573199   -0.1200
     20 C20        -4.0221    4.9268   57.0052 C.3     1  ZINC000076573199   -0.1100
     21 C21        -2.0519    3.3906   57.2343 C.ar    1  ZINC000076573199    0.1600
     22 N22        -1.9933    3.3108   55.8386 N.am    1  ZINC000076573199   -0.6700
     23 C23        -1.3416    4.2587   55.1362 C.2     1  ZINC000076573199    0.5100
     24 C24        -1.2783    4.1728   53.6330 C.3     1  ZINC000076573199   -0.1700
     25 O25        -0.8060    5.1808   55.7139 O.2     1  ZINC000076573199   -0.5200
     26 C26        -1.1332    2.6975   58.0085 C.ar    1  ZINC000076573199   -0.1400
     27 H27        -1.5788    0.9027   65.3930 H       1  ZINC000076573199    0.0600
     28 H28        -1.6493    2.5304   64.6761 H       1  ZINC000076573199    0.0500
     29 H29        -1.5805    1.0966   63.6237 H       1  ZINC000076573199    0.0500
     30 H30         0.6274    2.2189   63.7446 H       1  ZINC000076573199    0.0600
     31 H31         0.6290    2.0250   65.5140 H       1  ZINC000076573199    0.0600
     32 H32         1.2840   -0.1079   66.5091 H       1  ZINC000076573199    0.0600
     33 H33        -0.3613   -0.5761   66.0171 H       1  ZINC000076573199    0.0600
     34 H34         1.0230   -1.6116   65.5933 H       1  ZINC000076573199    0.0500
     35 H35         2.7041    1.2924   64.2514 H       1  ZINC000076573199    0.0800
     36 H36         2.9120   -0.4184   64.6966 H       1  ZINC000076573199    0.0700
     37 H37         2.4950   -1.8405   61.3566 H       1  ZINC000076573199    0.0600
     38 H38         3.0678   -2.1320   63.0165 H       1  ZINC000076573199    0.0700
     39 H39         1.3368   -1.8542   62.7082 H       1  ZINC000076573199    0.0600
     40 H40         0.7636    0.2268   61.5033 H       1  ZINC000076573199    0.4100
     41 H41        -0.4611    1.1589   60.4388 H       1  ZINC000076573199    0.4200
     42 H42        -2.2249    3.6188   61.0755 H       1  ZINC000076573199    0.1400
     43 H43        -3.8457    4.8531   59.6967 H       1  ZINC000076573199    0.1300
     44 H44        -3.6285    5.9186   56.7829 H       1  ZINC000076573199    0.0700
     45 H45        -4.1962    4.3878   56.0739 H       1  ZINC000076573199    0.0600
     46 H46        -4.9609    5.0222   57.5507 H       1  ZINC000076573199    0.0700
     47 H47        -2.4217    2.5733   55.3764 H       1  ZINC000076573199    0.4100
     48 H48        -2.2891    4.1911   53.2252 H       1  ZINC000076573199    0.0900
     49 H49        -0.7143    5.0205   53.2440 H       1  ZINC000076573199    0.1000
     50 H50        -0.7862    3.2447   53.3425 H       1  ZINC000076573199    0.0900
     51 H51        -0.3740    2.0922   57.5354 H       1  ZINC000076573199    0.1400
@<TRIPOS>BOND
     1     1     2    1
     2     1    27    1
     3     1    28    1
     4     1    29    1
     5     2     3    1
     6     2    30    1
     7     2    31    1
     8     3     4    1
     9     3     5    1
    10     3     6    1
    11     5    32    1
    12     5    33    1
    13     5    34    1
    14     6     7    1
    15     6    35    1
    16     6    36    1
    17     7     8    1
    18     7     9    1
    19     7    10    1
    20     9    37    1
    21     9    38    1
    22     9    39    1
    23    10    11   am
    24    10    40    1
    25    11    12    2
    26    11    13    1
    27    13    14    2
    28    13    15   am
    29    15    16    1
    30    15    41    1
    31    16    26   ar
    32    16    17   ar
    33    17    18   ar
    34    17    42    1
    35    18    19   ar
    36    18    43    1
    37    19    20    1
    38    19    21   ar
    39    20    44    1
    40    20    45    1
    41    20    46    1
    42    21    22    1
    43    21    26   ar
    44    22    23   am
    45    22    47    1
    46    23    24    1
    47    23    25    2
    48    24    48    1
    49    24    49    1
    50    24    50    1
    51    26    51    1
@<TRIPOS>SUBSTRUCTURE
     1 ZINC000076573199        1 TEMP              0 ****  ****    0 ROOT


##########                                Name:    ZINC000543625960
##########                DOCK_Rotatable_Bonds:                   8
##########                         Heavy_Atoms:                  29
##########                    Molecular_Weight:             416.544
##########                DOCK_Rotatable_Bonds:                   8
##########                       Formal_Charge:           -0.010001
##########                     HBond_Acceptors:                   8
##########                        HBond_Donors:                   2
##########                         Heavy_Atoms:                  29
##########                          Grid_Score:          -30.330753
##########                     Grid_vdw_energy:          -29.139448
##########                      Grid_es_energy:           -1.191304
##########           Internal_energy_repulsive:           10.527670

@<TRIPOS>MOLECULE
ZINC000543625960
 57 59 1 0 0
SMALL
USER_CHARGES


@<TRIPOS>ATOM
      1 C1        -13.4644   -0.1917   54.5756 C.3     1  ZINC000543625960   -0.1500
      2 C2        -12.6142   -0.0909   53.3076 C.3     1  ZINC000543625960   -0.1300
      3 C3        -11.3952    0.7929   53.5798 C.3     1  ZINC000543625960    0.1500
      4 H4        -11.2559    0.8983   54.6557 H       1  ZINC000543625960    0.0800
      5 C5        -11.6161    2.1726   52.9565 C.3     1  ZINC000543625960   -0.1700
      6 N6        -10.2038    0.1763   52.9913 N.am    1  ZINC000543625960   -1.1100
      7 S7         -9.1946   -0.7392   53.9323 S.o2    1  ZINC000543625960    2.7000
      8 O8        -10.0097   -1.7210   54.5575 O.2     1  ZINC000543625960   -0.9600
      9 O9         -8.0729   -1.0618   53.1218 O.2     1  ZINC000543625960   -0.9500
     10 C10        -8.5945    0.3029   55.2203 C.ar    1  ZINC000543625960   -0.6600
     11 C11        -7.5191    1.1398   54.9868 C.ar    1  ZINC000543625960   -0.0400
     12 C12        -7.0450    1.9592   55.9950 C.ar    1  ZINC000543625960   -0.1200
     13 C13        -7.6450    1.9438   57.2387 C.ar    1  ZINC000543625960   -0.0600
     14 C14        -8.7258    1.1046   57.4763 C.ar    1  ZINC000543625960    0.1500
     15 N15        -9.3361    1.0866   58.7356 N.am    1  ZINC000543625960   -0.6800
     16 C16        -8.8183    0.3315   59.7246 C.2     1  ZINC000543625960    0.7200
     17 O17        -7.8210   -0.3340   59.5228 O.2     1  ZINC000543625960   -0.5600
     18 N18        -9.4060    0.3141   60.9374 N.am    1  ZINC000543625960   -0.6300
     19 C19        -8.9473   -0.4632   62.1032 C.3     1  ZINC000543625960    0.0900
     20 C20        -9.5116    0.2938   63.3313 C.3     1  ZINC000543625960   -0.1000
     21 H21        -9.6246   -0.3751   64.1845 H       1  ZINC000543625960    0.1000
     22 C22        -8.6296    1.4914   63.6902 C.3     1  ZINC000543625960   -0.1500
     23 C23       -10.8941    0.7590   62.8024 C.3     1  ZINC000543625960   -0.1200
     24 C24       -10.6067    1.0719   61.3188 C.3     1  ZINC000543625960    0.2000
     25 H25       -10.4324    2.1404   61.1923 H       1  ZINC000543625960    0.0900
     26 C26       -11.7731    0.6389   60.4684 C.ar    1  ZINC000543625960   -0.1400
     27 C27       -12.0586   -0.7072   60.3015 C.ar    1  ZINC000543625960   -0.0600
     28 C28       -13.1420   -1.0590   59.5105 C.ar    1  ZINC000543625960   -0.1700
     29 C29       -13.8956   -0.0631   58.9193 C.ar    1  ZINC000543625960    0.1000
     30 N30       -13.5945    1.2082   59.1002 N.ar    1  ZINC000543625960   -0.4800
     31 C31       -12.5752    1.5794   59.8497 C.ar    1  ZINC000543625960    0.1200
     32 C32        -9.2026    0.2870   56.4605 C.ar    1  ZINC000543625960   -0.0500
     33 H33       -14.3328   -0.8213   54.3816 H       1  ZINC000543625960    0.0600
     34 H34       -12.8702   -0.6294   55.3777 H       1  ZINC000543625960    0.0600
     35 H35       -13.7960    0.8038   54.8708 H       1  ZINC000543625960    0.0500
     36 H36       -12.2826   -1.0864   53.0123 H       1  ZINC000543625960    0.0700
     37 H37       -13.2085    0.3469   52.5055 H       1  ZINC000543625960    0.0800
     38 H38       -12.5026    2.6314   53.3944 H       1  ZINC000543625960    0.0700
     39 H39       -10.7478    2.8021   53.1505 H       1  ZINC000543625960    0.0700
     40 H40       -11.7555    2.0671   51.8806 H       1  ZINC000543625960    0.0600
     41 H41       -10.0060    0.3043   52.0503 H       1  ZINC000543625960    0.4200
     42 H42        -7.0478    1.1535   54.0151 H       1  ZINC000543625960    0.1400
     43 H43        -6.2046    2.6116   55.8096 H       1  ZINC000543625960    0.1400
     44 H44        -7.2741    2.5834   58.0259 H       1  ZINC000543625960    0.1400
     45 H45       -10.1317    1.6175   58.8967 H       1  ZINC000543625960    0.4100
     46 H46        -9.3479   -1.4762   62.0651 H       1  ZINC000543625960    0.0700
     47 H47        -7.8582   -0.4860   62.1392 H       1  ZINC000543625960    0.0800
     48 H48        -8.5672    2.1657   62.8360 H       1  ZINC000543625960    0.0600
     49 H49        -9.0625    2.0199   64.5396 H       1  ZINC000543625960    0.0600
     50 H50        -7.6306    1.1417   63.9508 H       1  ZINC000543625960    0.0600
     51 H51       -11.6312   -0.0384   62.8963 H       1  ZINC000543625960    0.0800
     52 H52       -11.2256    1.6557   63.3260 H       1  ZINC000543625960    0.0900
     53 H53       -11.4516   -1.4641   60.7757 H       1  ZINC000543625960    0.1300
     54 H54       -13.3934   -2.0983   59.3582 H       1  ZINC000543625960    0.1400
     55 H55       -14.7408   -0.3287   58.3016 H       1  ZINC000543625960    0.1600
     56 H56       -12.3594    2.6303   59.9746 H       1  ZINC000543625960    0.1400
     57 H57       -10.0429   -0.3668   56.6421 H       1  ZINC000543625960    0.1400
@<TRIPOS>BOND
     1     1     2    1
     2     1    33    1
     3     1    34    1
     4     1    35    1
     5     2     3    1
     6     2    36    1
     7     2    37    1
     8     3     4    1
     9     3     5    1
    10     3     6    1
    11     5    38    1
    12     5    39    1
    13     5    40    1
    14     6     7   am
    15     6    41    1
    16     7     8    2
    17     7     9    2
    18     7    10    1
    19    10    32   ar
    20    10    11   ar
    21    11    12   ar
    22    11    42    1
    23    12    13   ar
    24    12    43    1
    25    13    14   ar
    26    13    44    1
    27    14    15    1
    28    14    32   ar
    29    15    16   am
    30    15    45    1
    31    16    17    2
    32    16    18   am
    33    18    24    1
    34    18    19    1
    35    19    20    1
    36    19    46    1
    37    19    47    1
    38    20    21    1
    39    20    22    1
    40    20    23    1
    41    22    48    1
    42    22    49    1
    43    22    50    1
    44    23    24    1
    45    23    51    1
    46    23    52    1
    47    24    25    1
    48    24    26    1
    49    26    31   ar
    50    26    27   ar
    51    27    28   ar
    52    27    53    1
    53    28    29   ar
    54    28    54    1
    55    29    30   ar
    56    29    55    1
    57    30    31   ar
    58    31    56    1
    59    32    57    1
@<TRIPOS>SUBSTRUCTURE
     1 ZINC000543625960        1 TEMP              0 ****  ****    0 ROOT


##########                                Name:    ZINC000442864105
##########                DOCK_Rotatable_Bonds:                   7
##########                         Heavy_Atoms:                  30
##########                    Molecular_Weight:              414.39
##########                DOCK_Rotatable_Bonds:                   7
##########                       Formal_Charge:           0.0200001
##########                     HBond_Acceptors:                  10
##########                        HBond_Donors:                   2
##########                         Heavy_Atoms:                  30
##########                          Grid_Score:          -30.306440
##########                     Grid_vdw_energy:          -29.515543
##########                      Grid_es_energy:           -0.790898
##########           Internal_energy_repulsive:           18.109055

@<TRIPOS>MOLECULE
ZINC000442864105
 47 50 1 0 0
SMALL
USER_CHARGES


@<TRIPOS>ATOM
      1 C1         -8.9640   -0.8461   59.9562 C.3     1  ZINC000442864105    0.0800
      2 N2         -9.7336   -1.4235   58.8513 N.pl3   1  ZINC000442864105   -0.4900
      3 C3        -10.4703   -2.5763   58.9231 C.2     1  ZINC000442864105    0.0300
      4 C4        -11.0495   -2.8233   57.7382 C.2     1  ZINC000442864105   -0.1900
      5 C5        -10.6522   -1.7413   56.8327 C.ar    1  ZINC000442864105   -0.1600
      6 C6        -10.9274   -1.4472   55.4958 C.ar    1  ZINC000442864105   -0.0200
      7 C7        -10.3912   -0.3307   54.9207 C.ar    1  ZINC000442864105   -0.2100
      8 C8         -9.5698    0.5196   55.6595 C.ar    1  ZINC000442864105    0.2400
      9 N9         -9.0288    1.6586   55.0560 N.pl3   1  ZINC000442864105   -0.7400
     10 C10        -7.8099    1.5518   54.2504 C.3     1  ZINC000442864105    0.1100
     11 C11        -7.7899    2.6526   53.2214 C.2     1  ZINC000442864105    0.5100
     12 O12        -8.6604    3.4973   53.2198 O.2     1  ZINC000442864105   -0.5100
     13 N13        -6.8046    2.6987   52.3029 N.am    1  ZINC000442864105   -0.6600
     14 C14        -6.7860    3.7212   51.3472 C.ar    1  ZINC000442864105    0.1600
     15 C15        -7.8992    3.9506   50.5521 C.ar    1  ZINC000442864105   -0.0700
     16 C16        -7.8785    4.9608   49.6091 C.ar    1  ZINC000442864105   -0.1600
     17 C17        -9.0891    5.2083   48.7465 C.3     1  ZINC000442864105    0.5100
     18 F18       -10.2467    4.8918   49.4656 F       1  ZINC000442864105   -0.1700
     19 F19        -9.1268    6.5555   48.3714 F       1  ZINC000442864105   -0.1700
     20 F20        -9.0177    4.4072   47.6017 F       1  ZINC000442864105   -0.1700
     21 C21        -6.7502    5.7453   49.4551 C.ar    1  ZINC000442864105   -0.0600
     22 C22        -5.6362    5.5235   50.2425 C.ar    1  ZINC000442864105   -0.1100
     23 C23        -5.6501    4.5160   51.1953 C.ar    1  ZINC000442864105    0.1500
     24 N24        -4.5208    4.2890   51.9954 N.pl3   1  ZINC000442864105   -0.3300
     25 C25        -3.3475    4.9485   51.9422 C.2     1  ZINC000442864105    0.2800
     26 N26        -2.5548    4.4392   52.8504 N.2     1  ZINC000442864105   -0.5300
     27 C27        -3.1818    3.4592   53.4998 C.2     1  ZINC000442864105    0.2300
     28 N28        -4.3902    3.3331   53.0161 N.2     1  ZINC000442864105   -0.3400
     29 C29        -9.2863    0.2448   56.9862 C.ar    1  ZINC000442864105   -0.2100
     30 C30        -9.8290   -0.8853   57.5873 C.ar    1  ZINC000442864105    0.1500
     31 H31        -9.5974   -0.1632   60.5222 H       1  ZINC000442864105    0.0700
     32 H32        -8.6138   -1.6439   60.6110 H       1  ZINC000442864105    0.0800
     33 H33        -8.1082   -0.3015   59.5573 H       1  ZINC000442864105    0.0800
     34 H34       -10.5701   -3.1946   59.8029 H       1  ZINC000442864105    0.1700
     35 H35       -11.6873   -3.6609   57.4973 H       1  ZINC000442864105    0.1400
     36 H36       -11.5626   -2.1018   54.9174 H       1  ZINC000442864105    0.1200
     37 H37       -10.6047   -0.1049   53.8864 H       1  ZINC000442864105    0.1200
     38 H38        -9.4605    2.5196   55.1707 H       1  ZINC000442864105    0.4100
     39 H39        -6.9376    1.6433   54.8974 H       1  ZINC000442864105    0.1000
     40 H40        -7.7899    0.5847   53.7481 H       1  ZINC000442864105    0.1000
     41 H41        -6.1084    2.0233   52.3042 H       1  ZINC000442864105    0.4300
     42 H42        -8.7820    3.3398   50.6698 H       1  ZINC000442864105    0.1700
     43 H43        -6.7393    6.5336   48.7169 H       1  ZINC000442864105    0.1500
     44 H44        -4.7567    6.1379   50.1192 H       1  ZINC000442864105    0.1500
     45 H45        -3.1034    5.7558   51.2675 H       1  ZINC000442864105    0.2300
     46 H46        -2.7615    2.8674   54.2995 H       1  ZINC000442864105    0.2300
     47 H47        -8.6493    0.9075   57.5531 H       1  ZINC000442864105    0.1200
@<TRIPOS>BOND
     1     1     2    1
     2     1    31    1
     3     1    32    1
     4     1    33    1
     5     2    30    1
     6     2     3    1
     7     3     4    2
     8     3    34    1
     9     4     5    1
    10     4    35    1
    11     5    30   ar
    12     5     6   ar
    13     6     7   ar
    14     6    36    1
    15     7     8   ar
    16     7    37    1
    17     8     9    1
    18     8    29   ar
    19     9    10    1
    20     9    38    1
    21    10    11    1
    22    10    39    1
    23    10    40    1
    24    11    12    2
    25    11    13   am
    26    13    14    1
    27    13    41    1
    28    14    23   ar
    29    14    15   ar
    30    15    16   ar
    31    15    42    1
    32    16    17    1
    33    16    21   ar
    34    17    18    1
    35    17    19    1
    36    17    20    1
    37    21    22   ar
    38    21    43    1
    39    22    23   ar
    40    22    44    1
    41    23    24    1
    42    24    28    1
    43    24    25    1
    44    25    26    2
    45    25    45    1
    46    26    27    1
    47    27    28    2
    48    27    46    1
    49    29    30   ar
    50    29    47    1
@<TRIPOS>SUBSTRUCTURE
     1 ZINC000442864105        1 TEMP              0 ****  ****    0 ROOT


##########                                Name:    ZINC000538774026
##########                DOCK_Rotatable_Bonds:                  10
##########                         Heavy_Atoms:                  29
##########                    Molecular_Weight:             414.496
##########                DOCK_Rotatable_Bonds:                  10
##########                       Formal_Charge:            0.049999
##########                     HBond_Acceptors:                   9
##########                        HBond_Donors:                   2
##########                         Heavy_Atoms:                  29
##########                          Grid_Score:          -30.303574
##########                     Grid_vdw_energy:          -27.523500
##########                      Grid_es_energy:           -2.780074
##########           Internal_energy_repulsive:           23.225687

@<TRIPOS>MOLECULE
ZINC000538774026
 61 62 1 0 0
SMALL
USER_CHARGES


@<TRIPOS>ATOM
      1 C1         -7.5442    6.3271   49.1116 C.3     1  ZINC000538774026   -0.1500
      2 C2         -8.3440    5.1632   49.7004 C.3     1  ZINC000538774026   -0.1100
      3 C3         -9.6455    4.9898   48.9150 C.3     1  ZINC000538774026   -0.1400
      4 C4         -7.5178    3.8787   49.6084 C.3     1  ZINC000538774026    0.1400
      5 N5         -6.3623    3.9761   50.5037 N.pl3   1  ZINC000538774026   -0.3400
      6 N6         -5.1228    4.5485   50.1906 N.2     1  ZINC000538774026   -0.2500
      7 C7         -4.3467    4.4504   51.2394 C.2     1  ZINC000538774026    0.0500
      8 C8         -5.0640    3.8111   52.2608 C.2     1  ZINC000538774026    0.0800
      9 N9         -4.5842    3.5157   53.5517 N.am    1  ZINC000538774026   -0.6600
     10 C10        -4.7363    4.4104   54.5482 C.2     1  ZINC000538774026    0.7100
     11 O11        -5.2893    5.4718   54.3331 O.2     1  ZINC000538774026   -0.5700
     12 N12        -4.2757    4.1285   55.7830 N.am    1  ZINC000538774026   -0.7300
     13 C13        -4.4395    5.1017   56.8657 C.3     1  ZINC000538774026    0.1600
     14 C14        -4.5406    4.3647   58.2028 C.3     1  ZINC000538774026   -0.1300
     15 C15        -3.2647    3.5530   58.4355 C.3     1  ZINC000538774026   -0.1000
     16 C16        -2.0589    4.4944   58.4618 C.3     1  ZINC000538774026   -0.0800
     17 C17        -0.8022    3.6948   58.6910 C.2     1  ZINC000538774026    0.4700
     18 O18        -0.6463    2.6390   58.1245 O.2     1  ZINC000538774026   -0.5000
     19 O19         0.1438    4.1555   59.5243 O.3     1  ZINC000538774026   -0.3500
     20 C20         0.3849    3.3911   60.7350 C.3     1  ZINC000538774026    0.1200
     21 C21         1.5382    2.4136   60.4998 C.3     1  ZINC000538774026   -0.1800
     22 C22         0.7483    4.3438   61.8757 C.3     1  ZINC000538774026   -0.1400
     23 C23        -0.8778    2.6105   61.1052 C.3     1  ZINC000538774026   -0.1800
     24 C24        -1.9579    5.2313   57.1248 C.3     1  ZINC000538774026   -0.1100
     25 C25        -3.2337    6.0431   56.8922 C.3     1  ZINC000538774026   -0.1300
     26 C26        -6.3049    3.5327   51.7865 C.2     1  ZINC000538774026   -0.0500
     27 C27        -7.4143    2.8481   52.5424 C.3     1  ZINC000538774026    0.3500
     28 F28        -8.5974    3.5810   52.3997 F       1  ZINC000538774026   -0.1900
     29 F29        -7.6001    1.5589   52.0318 F       1  ZINC000538774026   -0.1900
     30 H30        -8.1328    7.2422   49.1771 H       1  ZINC000538774026    0.0600
     31 H31        -6.6170    6.4506   49.6711 H       1  ZINC000538774026    0.0600
     32 H32        -7.3132    6.1176   48.0672 H       1  ZINC000538774026    0.0600
     33 H33        -8.5750    5.3726   50.7448 H       1  ZINC000538774026    0.0800
     34 H34        -9.4145    4.7803   47.8706 H       1  ZINC000538774026    0.0600
     35 H35       -10.2152    4.1605   49.3344 H       1  ZINC000538774026    0.0600
     36 H36       -10.2341    5.9049   48.9805 H       1  ZINC000538774026    0.0600
     37 H37        -8.1340    3.0287   49.9017 H       1  ZINC000538774026    0.1000
     38 H38        -7.1730    3.7411   48.5837 H       1  ZINC000538774026    0.1000
     39 H39        -3.3276    4.8015   51.3069 H       1  ZINC000538774026    0.2100
     40 H40        -4.1441    2.6686   53.7235 H       1  ZINC000538774026    0.4100
     41 H41        -3.8356    3.2813   55.9548 H       1  ZINC000538774026    0.4000
     42 H42        -5.3484    5.6800   56.7001 H       1  ZINC000538774026    0.1000
     43 H43        -4.6625    5.0888   59.0084 H       1  ZINC000538774026    0.0800
     44 H44        -5.3995    3.6941   58.1840 H       1  ZINC000538774026    0.0800
     45 H45        -3.3367    3.0280   59.3880 H       1  ZINC000538774026    0.0700
     46 H46        -3.1428    2.8289   57.6298 H       1  ZINC000538774026    0.0700
     47 H47        -2.1808    5.2184   59.2674 H       1  ZINC000538774026    0.1100
     48 H48         2.4377    2.9698   60.2361 H       1  ZINC000538774026    0.0600
     49 H49         1.7192    1.8398   61.4087 H       1  ZINC000538774026    0.0700
     50 H50         1.2793    1.7349   59.6872 H       1  ZINC000538774026    0.0800
     51 H51        -0.0733    5.0402   62.0432 H       1  ZINC000538774026    0.0700
     52 H52         0.9294    3.7700   62.7846 H       1  ZINC000538774026    0.0800
     53 H53         1.6479    4.9000   61.6120 H       1  ZINC000538774026    0.0700
     54 H54        -1.1368    1.9318   60.2926 H       1  ZINC000538774026    0.0800
     55 H55        -0.6969    2.0367   62.0141 H       1  ZINC000538774026    0.0700
     56 H56        -1.6995    3.3069   61.2728 H       1  ZINC000538774026    0.0600
     57 H57        -1.0989    5.9019   57.1436 H       1  ZINC000538774026    0.0800
     58 H58        -1.8360    4.5072   56.3192 H       1  ZINC000538774026    0.0600
     59 H59        -3.1616    6.5680   55.9396 H       1  ZINC000538774026    0.0800
     60 H60        -3.3556    6.7671   57.6978 H       1  ZINC000538774026    0.0900
     61 H61        -7.1504    2.7862   53.5981 H       1  ZINC000538774026    0.1300
@<TRIPOS>BOND
     1     1     2    1
     2     1    30    1
     3     1    31    1
     4     1    32    1
     5     2     3    1
     6     2     4    1
     7     2    33    1
     8     3    34    1
     9     3    35    1
    10     3    36    1
    11     4     5    1
    12     4    37    1
    13     4    38    1
    14     5    26    1
    15     5     6    1
    16     6     7    2
    17     7     8    1
    18     7    39    1
    19     8     9    1
    20     8    26    2
    21     9    10   am
    22     9    40    1
    23    10    11    2
    24    10    12   am
    25    12    13    1
    26    12    41    1
    27    13    25    1
    28    13    14    1
    29    13    42    1
    30    14    15    1
    31    14    43    1
    32    14    44    1
    33    15    16    1
    34    15    45    1
    35    15    46    1
    36    16    17    1
    37    16    24    1
    38    16    47    1
    39    17    18    2
    40    17    19    1
    41    19    20    1
    42    20    21    1
    43    20    22    1
    44    20    23    1
    45    21    48    1
    46    21    49    1
    47    21    50    1
    48    22    51    1
    49    22    52    1
    50    22    53    1
    51    23    54    1
    52    23    55    1
    53    23    56    1
    54    24    25    1
    55    24    57    1
    56    24    58    1
    57    25    59    1
    58    25    60    1
    59    26    27    1
    60    27    28    1
    61    27    29    1
    62    27    61    1
@<TRIPOS>SUBSTRUCTURE
     1 ZINC000538774026        1 TEMP              0 ****  ****    0 ROOT


##########                                Name:    ZINC001053792610
##########                DOCK_Rotatable_Bonds:                   5
##########                         Heavy_Atoms:                  25
##########                    Molecular_Weight:             347.374
##########                DOCK_Rotatable_Bonds:                   5
##########                       Formal_Charge:          -0.0400001
##########                     HBond_Acceptors:                   9
##########                        HBond_Donors:                   2
##########                         Heavy_Atoms:                  25
##########                          Grid_Score:          -30.299553
##########                     Grid_vdw_energy:          -28.529354
##########                      Grid_es_energy:           -1.770198
##########           Internal_energy_repulsive:            5.254337

@<TRIPOS>MOLECULE
ZINC001053792610
 46 49 1 0 0
SMALL
USER_CHARGES


@<TRIPOS>ATOM
      1 C1         -1.3008   -2.4369   48.8927 C.3     1  ZINC001053792610   -0.1000
      2 C2         -0.4158   -1.2448   49.1515 C.ar    1  ZINC001053792610    0.0800
      3 C3         -0.7127   -0.0241   48.5723 C.ar    1  ZINC001053792610    0.0600
      4 N4          0.0634    1.0212   48.7991 N.ar    1  ZINC001053792610   -0.4200
      5 C5          1.1229    0.9005   49.5791 C.ar    1  ZINC001053792610    0.0800
      6 C6          2.0076    2.0925   49.8382 C.3     1  ZINC001053792610    0.0700
      7 N7          2.4046    2.1096   51.2525 N.3     1  ZINC001053792610   -0.4500
      8 C8          1.2468    2.3926   52.1235 C.3     1  ZINC001053792610   -0.0100
      9 C9          2.1591    3.3096   52.9359 C.3     1  ZINC001053792610    0.0800
     10 C10         2.9480    3.4282   51.6335 C.3     1  ZINC001053792610   -0.0100
     11 C11         1.5077    4.6116   53.4280 C.3     1  ZINC001053792610   -0.1500
     12 C12         1.4384    4.3773   54.9634 C.3     1  ZINC001053792610    0.1100
     13 H13         1.4821    5.3211   55.5069 H       1  ZINC001053792610    0.1200
     14 N14         0.2400    3.6175   55.3277 N.am    1  ZINC001053792610   -0.7100
     15 C15        -0.6447    4.1335   56.2038 C.2     1  ZINC001053792610    0.5000
     16 O16        -0.4493    5.2275   56.6896 O.2     1  ZINC001053792610   -0.5100
     17 C17        -1.8765    3.3512   56.5798 C.3     1  ZINC001053792610    0.0800
     18 H18        -2.1305    2.6384   55.7953 H       1  ZINC001053792610    0.1300
     19 C19        -1.6679    2.6258   57.9233 C.3     1  ZINC001053792610    0.0500
     20 O20        -2.6893    3.1941   58.7933 O.3     1  ZINC001053792610   -0.3200
     21 C21        -3.3984    4.1027   58.1143 C.2     1  ZINC001053792610    0.6500
     22 O22        -4.3157    4.7301   58.6055 O.2     1  ZINC001053792610   -0.5100
     23 N23        -3.0053    4.2579   56.8393 N.am    1  ZINC001053792610   -0.7100
     24 C24         2.7227    3.5403   55.1943 C.3     1  ZINC001053792610    0.0400
     25 O25         2.8421    2.7043   54.0291 O.3     1  ZINC001053792610   -0.3300
     26 C26         1.4200   -0.3207   50.1585 C.ar    1  ZINC001053792610    0.0600
     27 N27         0.6410   -1.3644   49.9360 N.ar    1  ZINC001053792610   -0.4400
     28 H28        -2.0897   -2.4735   49.6439 H       1  ZINC001053792610    0.0800
     29 H29        -1.7464   -2.3503   47.9018 H       1  ZINC001053792610    0.0800
     30 H30        -0.7063   -3.3490   48.9454 H       1  ZINC001053792610    0.0800
     31 H31        -1.5787    0.0744   47.9345 H       1  ZINC001053792610    0.1700
     32 H32         2.8974    2.0276   49.2119 H       1  ZINC001053792610    0.1000
     33 H33         1.4634    3.0070   49.6026 H       1  ZINC001053792610    0.0600
     34 H34         0.4398    2.9209   51.6160 H       1  ZINC001053792610    0.0800
     35 H35         0.8983    1.5224   52.6797 H       1  ZINC001053792610    0.0900
     36 H36         4.0284    3.4279   51.7781 H       1  ZINC001053792610    0.1000
     37 H37         2.6078    4.2407   50.9916 H       1  ZINC001053792610    0.0800
     38 H38         2.1332    5.4727   53.1933 H       1  ZINC001053792610    0.1000
     39 H39         0.5095    4.7309   53.0069 H       1  ZINC001053792610    0.1000
     40 H40         0.0831    2.7431   54.9382 H       1  ZINC001053792610    0.4000
     41 H41        -1.8199    1.5529   57.8058 H       1  ZINC001053792610    0.1200
     42 H42        -0.6727    2.8308   58.3177 H       1  ZINC001053792610    0.1100
     43 H43        -3.3999    4.8693   56.1977 H       1  ZINC001053792610    0.4400
     44 H44         3.5901    4.1946   55.2808 H       1  ZINC001053792610    0.0800
     45 H45         2.6191    2.9279   56.0901 H       1  ZINC001053792610    0.0900
     46 H46         2.2861   -0.4195   50.7961 H       1  ZINC001053792610    0.1600
@<TRIPOS>BOND
     1     1     2    1
     2     1    28    1
     3     1    29    1
     4     1    30    1
     5     2    27   ar
     6     2     3   ar
     7     3     4   ar
     8     3    31    1
     9     4     5   ar
    10     5     6    1
    11     5    26   ar
    12     6     7    1
    13     6    32    1
    14     6    33    1
    15     7    10    1
    16     7     8    1
    17     8     9    1
    18     8    34    1
    19     8    35    1
    20     9    25    1
    21     9    10    1
    22     9    11    1
    23    10    36    1
    24    10    37    1
    25    11    12    1
    26    11    38    1
    27    11    39    1
    28    12    13    1
    29    12    14    1
    30    12    24    1
    31    14    15   am
    32    14    40    1
    33    15    16    2
    34    15    17    1
    35    17    18    1
    36    17    23    1
    37    17    19    1
    38    19    20    1
    39    19    41    1
    40    19    42    1
    41    20    21    1
    42    21    22    2
    43    21    23   am
    44    23    43    1
    45    24    25    1
    46    24    44    1
    47    24    45    1
    48    26    27   ar
    49    26    46    1
@<TRIPOS>SUBSTRUCTURE
     1 ZINC001053792610        1 TEMP              0 ****  ****    0 ROOT


##########                                Name:    ZINC000740843182
##########                DOCK_Rotatable_Bonds:                  10
##########                         Heavy_Atoms:                  24
##########                    Molecular_Weight:              419.34
##########                DOCK_Rotatable_Bonds:                  10
##########                       Formal_Charge:          0.00999957
##########                     HBond_Acceptors:                   7
##########                        HBond_Donors:                   3
##########                         Heavy_Atoms:                  24
##########                          Grid_Score:          -30.299303
##########                     Grid_vdw_energy:          -29.965582
##########                      Grid_es_energy:           -0.333722
##########           Internal_energy_repulsive:           10.696770

@<TRIPOS>MOLECULE
ZINC000740843182
 47 48 1 0 0
SMALL
USER_CHARGES


@<TRIPOS>ATOM
      1 C1         -7.3610    2.3504   51.8629 C.3     1  ZINC000740843182   -0.1500
      2 C2         -7.8246    1.3968   52.9660 C.3     1  ZINC000740843182   -0.1000
      3 H3         -7.1074    0.5822   53.0670 H       1  ZINC000740843182    0.0900
      4 C4         -7.9222    2.1576   54.2898 C.3     1  ZINC000740843182    0.1200
      5 N5         -8.1754    1.2115   55.3793 N.am    1  ZINC000740843182   -0.7200
      6 C6         -9.1497    1.4616   56.2762 C.2     1  ZINC000740843182    0.5500
      7 O7         -9.8174    2.4730   56.1822 O.2     1  ZINC000740843182   -0.5000
      8 C8         -9.4062    0.5062   57.3743 C.ar    1  ZINC000740843182   -0.1300
      9 C9        -10.1996   -0.6204   57.1524 C.ar    1  ZINC000740843182    0.0200
     10 C10       -10.4347   -1.5085   58.1815 C.ar    1  ZINC000740843182   -0.6800
     11 S11       -11.4361   -2.9312   57.9029 S.o2    1  ZINC000740843182    2.7000
     12 O12       -11.9811   -2.7891   56.5983 O.2     1  ZINC000740843182   -0.9400
     13 O13       -10.6604   -4.0525   58.3032 O.2     1  ZINC000740843182   -0.9500
     14 N14       -12.7124   -2.8460   58.9546 N.am    1  ZINC000740843182   -1.0900
     15 C15       -13.6315   -1.7065   58.9002 C.3     1  ZINC000740843182    0.0800
     16 C16       -15.1249   -1.9949   59.0661 C.3     1  ZINC000740843182   -0.1800
     17 C17       -14.3474   -1.3140   60.1942 C.3     1  ZINC000740843182   -0.1900
     18 C18        -9.8859   -1.2851   59.4319 C.ar    1  ZINC000740843182    0.0100
     19 C19        -9.0985   -0.1709   59.6598 C.ar    1  ZINC000740843182   -0.1200
     20 C20        -8.8509    0.7237   58.6377 C.ar    1  ZINC000740843182    0.0100
     21 Br21       -7.7743    2.2466   58.9506 Br      1  ZINC000740843182    0.0100
     22 C22        -9.1970    0.8261   52.6033 C.3     1  ZINC000740843182   -0.1400
     23 C23        -9.0782   -0.6823   52.3761 C.3     1  ZINC000740843182    0.1000
     24 H24        -8.3334   -0.8760   51.6042 H       1  ZINC000740843182    0.1000
     25 C25       -10.4317   -1.2391   51.9302 C.3     1  ZINC000740843182   -0.1900
     26 O26        -8.6794   -1.3172   53.5927 O.3     1  ZINC000740843182   -0.5600
     27 H27        -7.2914    1.8085   50.9197 H       1  ZINC000740843182    0.0600
     28 H28        -8.0782    3.1650   51.7618 H       1  ZINC000740843182    0.0600
     29 H29        -6.3833    2.7571   52.1213 H       1  ZINC000740843182    0.0500
     30 H30        -6.9863    2.6843   54.4761 H       1  ZINC000740843182    0.0700
     31 H31        -8.7395    2.8769   54.2360 H       1  ZINC000740843182    0.0700
     32 H32        -7.6417    0.4050   55.4551 H       1  ZINC000740843182    0.4000
     33 H33       -10.6288   -0.7964   56.1771 H       1  ZINC000740843182    0.1500
     34 H34       -12.8513   -3.5505   59.6067 H       1  ZINC000740843182    0.4200
     35 H35       -13.3460   -0.9043   58.2197 H       1  ZINC000740843182    0.1400
     36 H36       -15.8223   -1.3825   58.4945 H       1  ZINC000740843182    0.1100
     37 H37       -15.4235   -3.0325   59.2157 H       1  ZINC000740843182    0.1000
     38 H38       -14.1345   -1.9035   61.0859 H       1  ZINC000740843182    0.1000
     39 H39       -14.5332   -0.2535   60.3648 H       1  ZINC000740843182    0.1100
     40 H40       -10.0734   -1.9839   60.2337 H       1  ZINC000740843182    0.1600
     41 H41        -8.6732   -0.0025   60.6381 H       1  ZINC000740843182    0.1500
     42 H42        -9.8964    1.0170   53.4171 H       1  ZINC000740843182    0.0700
     43 H43        -9.5598    1.3031   51.6929 H       1  ZINC000740843182    0.0800
     44 H44       -10.7358   -0.7548   51.0022 H       1  ZINC000740843182    0.0700
     45 H45       -10.3470   -2.3137   51.7684 H       1  ZINC000740843182    0.0600
     46 H46       -11.1764   -1.0454   52.7021 H       1  ZINC000740843182    0.0600
     47 H47        -9.2808   -1.1605   54.3336 H       1  ZINC000740843182    0.3700
@<TRIPOS>BOND
     1     1     2    1
     2     1    27    1
     3     1    28    1
     4     1    29    1
     5     2     3    1
     6     2     4    1
     7     2    22    1
     8     4     5    1
     9     4    30    1
    10     4    31    1
    11     5     6   am
    12     5    32    1
    13     6     7    2
    14     6     8    1
    15     8    20   ar
    16     8     9   ar
    17     9    10   ar
    18     9    33    1
    19    10    11    1
    20    10    18   ar
    21    11    12    2
    22    11    13    2
    23    11    14   am
    24    14    15    1
    25    14    34    1
    26    15    17    1
    27    15    16    1
    28    15    35    1
    29    16    17    1
    30    16    36    1
    31    16    37    1
    32    17    38    1
    33    17    39    1
    34    18    19   ar
    35    18    40    1
    36    19    20   ar
    37    19    41    1
    38    20    21    1
    39    22    23    1
    40    22    42    1
    41    22    43    1
    42    23    24    1
    43    23    25    1
    44    23    26    1
    45    25    44    1
    46    25    45    1
    47    25    46    1
    48    26    47    1
@<TRIPOS>SUBSTRUCTURE
     1 ZINC000740843182        1 TEMP              0 ****  ****    0 ROOT


##########                                Name:    ZINC001282645012
##########                DOCK_Rotatable_Bonds:                   9
##########                         Heavy_Atoms:                  27
##########                    Molecular_Weight:             372.511
##########                DOCK_Rotatable_Bonds:                   9
##########                       Formal_Charge:          -0.0200004
##########                     HBond_Acceptors:                   6
##########                        HBond_Donors:                   1
##########                         Heavy_Atoms:                  27
##########                          Grid_Score:          -30.294817
##########                     Grid_vdw_energy:          -26.509092
##########                      Grid_es_energy:           -3.785724
##########           Internal_energy_repulsive:          125.583481

@<TRIPOS>MOLECULE
ZINC001282645012
 59 61 1 0 0
SMALL
USER_CHARGES


@<TRIPOS>ATOM
      1 C1        -11.6398    0.9394   56.6829 C.2     1  ZINC001282645012   -0.1900
      2 C2        -11.2312   -0.2988   56.8100 C.2     1  ZINC001282645012   -0.1300
      3 C3        -12.0696   -1.2948   57.5691 C.3     1  ZINC001282645012   -0.0500
      4 C4        -13.4456   -1.4103   56.9102 C.3     1  ZINC001282645012   -0.1500
      5 C5        -11.3795   -2.6603   57.5519 C.3     1  ZINC001282645012   -0.1400
      6 C6        -12.2321   -0.8320   58.9941 C.2     1  ZINC001282645012    0.5500
      7 O7        -13.3363   -0.7821   59.4931 O.2     1  ZINC001282645012   -0.5300
      8 N8        -11.1504   -0.4736   59.7138 N.am    1  ZINC001282645012   -0.6300
      9 C9         -9.6936   -0.4410   59.3478 C.3     1  ZINC001282645012    0.1200
     10 H10        -9.4505   -0.7626   58.3352 H       1  ZINC001282645012    0.1300
     11 C11        -9.0787   -1.3013   60.4925 C.3     1  ZINC001282645012   -0.1300
     12 C12        -9.9891   -0.9901   61.7058 C.3     1  ZINC001282645012   -0.1300
     13 C13       -11.0309    0.0223   61.1269 C.3     1  ZINC001282645012    0.1200
     14 H14       -11.9654    0.1047   61.6819 H       1  ZINC001282645012    0.1200
     15 C15       -10.2413    1.3527   60.9384 C.3     1  ZINC001282645012    0.1300
     16 H16       -10.9209    2.1735   60.7095 H       1  ZINC001282645012    0.1000
     17 N17        -9.4509    1.6574   62.1337 N.am    1  ZINC001282645012   -0.7100
     18 C18       -10.0331    2.2545   63.1925 C.2     1  ZINC001282645012    0.5100
     19 O19       -11.2110    2.5408   63.1552 O.2     1  ZINC001282645012   -0.5100
     20 C20        -9.2204    2.5663   64.4227 C.3     1  ZINC001282645012    0.1200
     21 H21        -8.2382    2.9340   64.1257 H       1  ZINC001282645012    0.1300
     22 C22        -9.9368    3.6358   65.2496 C.3     1  ZINC001282645012   -0.1100
     23 C23       -10.9179    2.9638   66.2124 C.3     1  ZINC001282645012   -0.1000
     24 C24       -11.6352    4.0333   67.0384 C.3     1  ZINC001282645012   -0.1500
     25 C25       -11.9468    2.1608   65.4140 C.3     1  ZINC001282645012   -0.1500
     26 N26        -9.0645    1.3510   65.2259 N.pl3   1  ZINC001282645012   -0.4500
     27 C27        -9.8218    0.2145   65.1348 C.2     1  ZINC001282645012   -0.0600
     28 C28        -9.3404   -0.6488   66.0495 C.2     1  ZINC001282645012   -0.0200
     29 N29        -8.3173   -0.0555   66.6819 N.2     1  ZINC001282645012   -0.4900
     30 C30        -8.1430    1.1407   66.1904 C.2     1  ZINC001282645012    0.1900
     31 C31        -9.3331    1.0364   59.6889 C.3     1  ZINC001282645012   -0.1400
     32 H32       -12.5776    1.2463   57.1221 H       1  ZINC001282645012    0.1000
     33 H33       -11.0369    1.6543   56.1427 H       1  ZINC001282645012    0.1000
     34 H34       -10.2935   -0.6057   56.3709 H       1  ZINC001282645012    0.1100
     35 H35       -13.3280   -1.7451   55.8796 H       1  ZINC001282645012    0.0700
     36 H36       -14.0519   -2.1308   57.4593 H       1  ZINC001282645012    0.0700
     37 H37       -13.9372   -0.4376   56.9225 H       1  ZINC001282645012    0.0600
     38 H38       -10.3992   -2.5779   58.0212 H       1  ZINC001282645012    0.0600
     39 H39       -11.9859   -3.3807   58.1009 H       1  ZINC001282645012    0.0700
     40 H40       -11.2619   -2.9949   56.5213 H       1  ZINC001282645012    0.0700
     41 H41        -9.1221   -2.3613   60.2418 H       1  ZINC001282645012    0.0800
     42 H42        -8.0523   -0.9950   60.6941 H       1  ZINC001282645012    0.0800
     43 H43       -10.4840   -1.8956   62.0569 H       1  ZINC001282645012    0.0700
     44 H44        -9.4142   -0.5294   62.5091 H       1  ZINC001282645012    0.0800
     45 H45        -8.5085    1.4294   62.1630 H       1  ZINC001282645012    0.4000
     46 H46        -9.2032    4.2071   65.8184 H       1  ZINC001282645012    0.0900
     47 H47       -10.4818    4.3051   64.5840 H       1  ZINC001282645012    0.0800
     48 H48       -10.3727    2.2952   66.8786 H       1  ZINC001282645012    0.0700
     49 H49       -12.1804    4.7021   66.3722 H       1  ZINC001282645012    0.0600
     50 H50       -12.3341    3.5547   67.7243 H       1  ZINC001282645012    0.0600
     51 H51       -10.9022    4.6055   67.6072 H       1  ZINC001282645012    0.0500
     52 H52       -11.4458    1.3452   64.8925 H       1  ZINC001282645012    0.0600
     53 H53       -12.6953    1.7525   66.0930 H       1  ZINC001282645012    0.0600
     54 H54       -12.4321    2.8126   64.6877 H       1  ZINC001282645012    0.0600
     55 H55       -10.6469    0.0430   64.4594 H       1  ZINC001282645012    0.1700
     56 H56        -9.7131   -1.6443   66.2405 H       1  ZINC001282645012    0.1700
     57 H57        -7.3906    1.8479   66.5070 H       1  ZINC001282645012    0.2000
     58 H58        -8.2781    1.1017   59.9547 H       1  ZINC001282645012    0.0900
     59 H59        -9.5650    1.7112   58.8651 H       1  ZINC001282645012    0.0900
@<TRIPOS>BOND
     1     1     2    2
     2     1    32    1
     3     1    33    1
     4     2     3    1
     5     2    34    1
     6     3     4    1
     7     3     5    1
     8     3     6    1
     9     4    35    1
    10     4    36    1
    11     4    37    1
    12     5    38    1
    13     5    39    1
    14     5    40    1
    15     6     7    2
    16     6     8   am
    17     8    13    1
    18     8     9    1
    19     9    10    1
    20     9    31    1
    21     9    11    1
    22    11    12    1
    23    11    41    1
    24    11    42    1
    25    12    13    1
    26    12    43    1
    27    12    44    1
    28    13    14    1
    29    13    15    1
    30    15    16    1
    31    15    17    1
    32    15    31    1
    33    17    18   am
    34    17    45    1
    35    18    19    2
    36    18    20    1
    37    20    21    1
    38    20    22    1
    39    20    26    1
    40    22    23    1
    41    22    46    1
    42    22    47    1
    43    23    24    1
    44    23    25    1
    45    23    48    1
    46    24    49    1
    47    24    50    1
    48    24    51    1
    49    25    52    1
    50    25    53    1
    51    25    54    1
    52    26    30    1
    53    26    27    1
    54    27    28    2
    55    27    55    1
    56    28    29    1
    57    28    56    1
    58    29    30    2
    59    30    57    1
    60    31    58    1
    61    31    59    1
@<TRIPOS>SUBSTRUCTURE
     1 ZINC001282645012        1 TEMP              0 ****  ****    0 ROOT


##########                                Name:    ZINC000047262406
##########                DOCK_Rotatable_Bonds:                   6
##########                         Heavy_Atoms:                  28
##########                    Molecular_Weight:             417.919
##########                DOCK_Rotatable_Bonds:                   6
##########                       Formal_Charge:          -0.0100002
##########                     HBond_Acceptors:                   9
##########                        HBond_Donors:                   1
##########                         Heavy_Atoms:                  28
##########                          Grid_Score:          -30.289902
##########                     Grid_vdw_energy:          -29.982010
##########                      Grid_es_energy:           -0.307892
##########           Internal_energy_repulsive:           11.607354

@<TRIPOS>MOLECULE
ZINC000047262406
 48 51 1 0 0
SMALL
USER_CHARGES


@<TRIPOS>ATOM
      1 C1        -12.6515   -2.9442   56.7285 C.3     1  ZINC000047262406   -0.1500
      2 C2        -12.3610   -1.4423   56.6990 C.3     1  ZINC000047262406    0.1800
      3 H3        -13.2771   -0.8996   56.4660 H       1  ZINC000047262406    0.0800
      4 C4        -11.3233   -1.1520   55.6455 C.2     1  ZINC000047262406    0.1700
      5 N5        -10.5824   -2.0318   55.0329 N.2     1  ZINC000047262406   -0.2500
      6 N6         -9.8069   -1.4358   54.1970 N.2     1  ZINC000047262406   -0.2700
      7 C7        -10.0290   -0.1403   54.2481 C.2     1  ZINC000047262406    0.2400
      8 C8         -9.3516    0.8935   53.4514 C.2     1  ZINC000047262406   -0.1500
      9 C9         -9.5293    2.2363   53.5893 C.2     1  ZINC000047262406   -0.0600
     10 C10        -8.7796    3.0024   52.7242 C.2     1  ZINC000047262406   -0.1400
     11 C11        -7.9973    2.3140   51.8865 C.2     1  ZINC000047262406   -0.1900
     12 S12        -8.1794    0.5893   52.1758 S.3     1  ZINC000047262406    0.1700
     13 O13       -10.9989    0.0617   55.1637 O.3     1  ZINC000047262406   -0.2200
     14 N14       -11.8590   -1.0148   58.0117 N.3     1  ZINC000047262406   -0.5200
     15 C15       -12.0789    0.4226   58.2166 C.3     1  ZINC000047262406    0.0500
     16 C16       -11.6789    0.8028   59.6440 C.3     1  ZINC000047262406   -0.1000
     17 C17       -10.2037    0.4566   59.8648 C.3     1  ZINC000047262406   -0.1100
     18 C18        -9.8195    0.7734   61.2871 C.2     1  ZINC000047262406    0.5100
     19 O19        -9.8087    1.9239   61.6705 O.2     1  ZINC000047262406   -0.4600
     20 N20        -9.4881   -0.2221   62.1332 N.am    1  ZINC000047262406   -0.6600
     21 C21        -9.1326    0.0711   63.4495 C.ar    1  ZINC000047262406    0.3600
     22 C22       -10.1233    0.3424   64.3858 C.ar    1  ZINC000047262406   -0.2000
     23 C23        -9.7575    0.6315   65.6889 C.ar    1  ZINC000047262406   -0.0400
     24 C24        -8.4067    0.6391   66.0114 C.ar    1  ZINC000047262406   -0.1200
     25 Cl25       -7.8933    0.9948   67.6312 Cl      1  ZINC000047262406   -0.0500
     26 C26        -7.4754    0.3598   65.0288 C.ar    1  ZINC000047262406    0.1500
     27 N27        -7.8553    0.0830   63.7964 N.ar    1  ZINC000047262406   -0.4600
     28 C28        -9.9925   -1.0363   59.5980 C.3     1  ZINC000047262406   -0.1100
     29 C29       -10.4415   -1.3632   58.1720 C.3     1  ZINC000047262406    0.0600
     30 H30       -13.4020   -3.1542   57.4906 H       1  ZINC000047262406    0.0800
     31 H31       -13.0239   -3.2615   55.7545 H       1  ZINC000047262406    0.0700
     32 H32       -11.7353   -3.4870   56.9616 H       1  ZINC000047262406    0.0800
     33 H33       -10.2025    2.6653   54.3168 H       1  ZINC000047262406    0.1600
     34 H34        -8.8212    4.0816   52.7223 H       1  ZINC000047262406    0.1600
     35 H35        -7.3464    2.7527   51.1447 H       1  ZINC000047262406    0.1800
     36 H36       -11.4738    0.9873   57.5072 H       1  ZINC000047262406    0.0400
     37 H37       -13.1324    0.6547   58.0606 H       1  ZINC000047262406    0.0900
     38 H38       -11.8274    1.8727   59.7908 H       1  ZINC000047262406    0.0800
     39 H39       -12.2929    0.2487   60.3539 H       1  ZINC000047262406    0.0900
     40 H40        -9.5864    1.0405   59.1821 H       1  ZINC000047262406    0.1000
     41 H41        -9.4967   -1.1422   61.8265 H       1  ZINC000047262406    0.4200
     42 H42       -11.1648    0.3282   64.1001 H       1  ZINC000047262406    0.1500
     43 H43       -10.5054    0.8466   66.4377 H       1  ZINC000047262406    0.1500
     44 H44        -6.4236    0.3649   65.2741 H       1  ZINC000047262406    0.1700
     45 H45        -8.9364   -1.2805   59.7120 H       1  ZINC000047262406    0.0700
     46 H46       -10.5801   -1.6194   60.3072 H       1  ZINC000047262406    0.0800
     47 H47       -10.3057   -2.4282   57.9837 H       1  ZINC000047262406    0.0700
     48 H48        -9.8442   -0.7902   57.4628 H       1  ZINC000047262406    0.0400
@<TRIPOS>BOND
     1     1     2    1
     2     1    30    1
     3     1    31    1
     4     1    32    1
     5     2     3    1
     6     2     4    1
     7     2    14    1
     8     4    13    1
     9     4     5    2
    10     5     6    1
    11     6     7    2
    12     7     8    1
    13     7    13    1
    14     8    12    1
    15     8     9    2
    16     9    10    1
    17     9    33    1
    18    10    11    2
    19    10    34    1
    20    11    12    1
    21    11    35    1
    22    14    29    1
    23    14    15    1
    24    15    16    1
    25    15    36    1
    26    15    37    1
    27    16    17    1
    28    16    38    1
    29    16    39    1
    30    17    18    1
    31    17    28    1
    32    17    40    1
    33    18    19    2
    34    18    20   am
    35    20    21    1
    36    20    41    1
    37    21    27   ar
    38    21    22   ar
    39    22    23   ar
    40    22    42    1
    41    23    24   ar
    42    23    43    1
    43    24    25    1
    44    24    26   ar
    45    26    27   ar
    46    26    44    1
    47    28    29    1
    48    28    45    1
    49    28    46    1
    50    29    47    1
    51    29    48    1
@<TRIPOS>SUBSTRUCTURE
     1 ZINC000047262406        1 TEMP              0 ****  ****    0 ROOT


##########                                Name:    ZINC000864730443
##########                DOCK_Rotatable_Bonds:                  10
##########                         Heavy_Atoms:                  25
##########                    Molecular_Weight:             356.462
##########                DOCK_Rotatable_Bonds:                  10
##########                       Formal_Charge:           0.0299988
##########                     HBond_Acceptors:                   7
##########                        HBond_Donors:                   2
##########                         Heavy_Atoms:                  25
##########                          Grid_Score:          -30.271185
##########                     Grid_vdw_energy:          -30.574175
##########                      Grid_es_energy:            0.302989
##########           Internal_energy_repulsive:           24.730566

@<TRIPOS>MOLECULE
ZINC000864730443
 57 58 1 0 0
SMALL
USER_CHARGES


@<TRIPOS>ATOM
      1 C1         -9.8873    1.4111   54.9395 C.3     1  ZINC000864730443   -0.1800
      2 C2         -9.3331    0.3339   54.0049 C.3     1  ZINC000864730443    0.1400
      3 C3         -9.7109    0.6683   52.5605 C.3     1  ZINC000864730443   -0.1800
      4 C4         -7.8095    0.2810   54.1343 C.3     1  ZINC000864730443   -0.1400
      5 O5         -9.8946   -0.9556   54.3659 O.3     1  ZINC000864730443   -0.3600
      6 C6        -11.2147   -0.9958   54.6278 C.2     1  ZINC000864730443    0.6500
      7 O7        -12.0167   -0.9351   53.7169 O.2     1  ZINC000864730443   -0.5700
      8 N8        -11.6464   -1.1035   55.8998 N.am    1  ZINC000864730443   -0.7100
      9 C9        -13.0828   -1.1491   56.1846 C.3     1  ZINC000864730443    0.1500
     10 C10       -13.3480   -2.1511   57.3100 C.3     1  ZINC000864730443   -0.1300
     11 C11       -12.0628   -2.4370   58.0430 C.2     1  ZINC000864730443    0.5300
     12 O12       -11.4058   -3.4153   57.7559 O.2     1  ZINC000864730443   -0.5300
     13 N13       -11.6436   -1.6059   59.0176 N.am    1  ZINC000864730443   -0.7200
     14 C14       -10.3941   -1.8840   59.7302 C.3     1  ZINC000864730443    0.1200
     15 C15        -9.2744   -1.0145   59.1547 C.3     1  ZINC000864730443   -0.1300
     16 C16        -8.9045    0.0744   60.1638 C.3     1  ZINC000864730443    0.0800
     17 H17        -8.0158    0.6110   59.8315 H       1  ZINC000864730443    0.0800
     18 C18       -10.0873    1.0574   60.3522 C.3     1  ZINC000864730443   -0.1500
     19 C19        -9.7883    1.6096   61.7726 C.3     1  ZINC000864730443   -0.1600
     20 C20        -9.1708    0.3828   62.4778 C.3     1  ZINC000864730443    0.0500
     21 O21        -8.6829   -0.5021   61.4607 O.3     1  ZINC000864730443   -0.3800
     22 C22       -14.3754   -1.5665   58.2842 C.3     1  ZINC000864730443   -0.1000
     23 C23       -14.6909   -2.6081   59.3621 C.3     1  ZINC000864730443   -0.1600
     24 C24       -15.1906   -3.8902   58.6911 C.3     1  ZINC000864730443    0.0600
     25 O25       -14.2010   -4.3639   57.7755 O.3     1  ZINC000864730443   -0.3700
     26 C26       -13.8995   -3.4508   56.7182 C.3     1  ZINC000864730443    0.0800
     27 H27       -10.9727    1.4488   54.8472 H       1  ZINC000864730443    0.0900
     28 H28        -9.6181    1.1729   55.9685 H       1  ZINC000864730443    0.0600
     29 H29        -9.4658    2.3790   54.6684 H       1  ZINC000864730443    0.0700
     30 H30        -9.2894    1.6362   52.2895 H       1  ZINC000864730443    0.0700
     31 H31        -9.3160   -0.0992   51.8947 H       1  ZINC000864730443    0.0600
     32 H32       -10.7963    0.7059   52.4683 H       1  ZINC000864730443    0.0900
     33 H33        -7.5403    0.0428   55.1634 H       1  ZINC000864730443    0.0700
     34 H34        -7.4147   -0.4865   53.4685 H       1  ZINC000864730443    0.0700
     35 H35        -7.3880    1.2490   53.8633 H       1  ZINC000864730443    0.0800
     36 H36       -11.0061   -1.1508   56.6270 H       1  ZINC000864730443    0.4100
     37 H37       -13.4241   -0.1602   56.4906 H       1  ZINC000864730443    0.0900
     38 H38       -13.6210   -1.4582   55.2886 H       1  ZINC000864730443    0.0800
     39 H39       -12.1691   -0.8236   59.2472 H       1  ZINC000864730443    0.4000
     40 H40       -10.5219   -1.6581   60.7890 H       1  ZINC000864730443    0.0700
     41 H41       -10.1347   -2.9360   59.6119 H       1  ZINC000864730443    0.0700
     42 H42        -8.4009   -1.6342   58.9523 H       1  ZINC000864730443    0.0800
     43 H43        -9.6138   -0.5513   58.2283 H       1  ZINC000864730443    0.0800
     44 H44       -10.0594    1.8529   59.6075 H       1  ZINC000864730443    0.0900
     45 H45       -11.0421    0.5323   60.3277 H       1  ZINC000864730443    0.0800
     46 H46        -9.0736    2.4312   61.7269 H       1  ZINC000864730443    0.0800
     47 H47       -10.7074    1.9206   62.2693 H       1  ZINC000864730443    0.0800
     48 H48        -8.3466    0.6997   63.1167 H       1  ZINC000864730443    0.0700
     49 H49        -9.9305   -0.1216   63.0749 H       1  ZINC000864730443    0.0700
     50 H50       -13.9663   -0.6707   58.7514 H       1  ZINC000864730443    0.0800
     51 H51       -15.2876   -1.3133   57.7437 H       1  ZINC000864730443    0.0800
     52 H52       -13.7890   -2.8242   59.9347 H       1  ZINC000864730443    0.0900
     53 H53       -15.4622   -2.2210   60.0280 H       1  ZINC000864730443    0.0800
     54 H54       -15.3761   -4.6495   59.4507 H       1  ZINC000864730443    0.1000
     55 H55       -16.1146   -3.6819   58.1518 H       1  ZINC000864730443    0.0500
     56 H56       -14.8068   -3.2369   56.1532 H       1  ZINC000864730443    0.0700
     57 H57       -13.1551   -3.8937   56.0566 H       1  ZINC000864730443    0.1000
@<TRIPOS>BOND
     1     1     2    1
     2     1    27    1
     3     1    28    1
     4     1    29    1
     5     2     3    1
     6     2     4    1
     7     2     5    1
     8     3    30    1
     9     3    31    1
    10     3    32    1
    11     4    33    1
    12     4    34    1
    13     4    35    1
    14     5     6    1
    15     6     7    2
    16     6     8   am
    17     8     9    1
    18     8    36    1
    19     9    10    1
    20     9    37    1
    21     9    38    1
    22    10    26    1
    23    10    11    1
    24    10    22    1
    25    11    12    2
    26    11    13   am
    27    13    14    1
    28    13    39    1
    29    14    15    1
    30    14    40    1
    31    14    41    1
    32    15    16    1
    33    15    42    1
    34    15    43    1
    35    16    17    1
    36    16    21    1
    37    16    18    1
    38    18    19    1
    39    18    44    1
    40    18    45    1
    41    19    20    1
    42    19    46    1
    43    19    47    1
    44    20    21    1
    45    20    48    1
    46    20    49    1
    47    22    23    1
    48    22    50    1
    49    22    51    1
    50    23    24    1
    51    23    52    1
    52    23    53    1
    53    24    25    1
    54    24    54    1
    55    24    55    1
    56    25    26    1
    57    26    56    1
    58    26    57    1
@<TRIPOS>SUBSTRUCTURE
     1 ZINC000864730443        1 TEMP              0 ****  ****    0 ROOT


##########                                Name:    ZINC000654382142
##########                DOCK_Rotatable_Bonds:                  14
##########                         Heavy_Atoms:                  24
##########                    Molecular_Weight:             379.401
##########                DOCK_Rotatable_Bonds:                  14
##########                       Formal_Charge:          0.00999933
##########                     HBond_Acceptors:                  12
##########                        HBond_Donors:                   2
##########                         Heavy_Atoms:                  24
##########                          Grid_Score:          -30.268017
##########                     Grid_vdw_energy:          -29.569183
##########                      Grid_es_energy:           -0.698834
##########           Internal_energy_repulsive:           12.672518

@<TRIPOS>MOLECULE
ZINC000654382142
 48 47 1 0 0
SMALL
USER_CHARGES


@<TRIPOS>ATOM
      1 C1         -8.4124    0.6559   64.3992 C.3     1  ZINC000654382142    0.0300
      2 O2         -8.6180   -0.3699   63.4258 O.3     1  ZINC000654382142   -0.3700
      3 C3         -9.5095   -0.0006   62.3718 C.3     1  ZINC000654382142    0.0400
      4 C4         -9.7969   -1.2215   61.4957 C.3     1  ZINC000654382142    0.1400
      5 N5        -10.6527   -0.8272   60.3740 N.am    1  ZINC000654382142   -0.6100
      6 C6        -12.1093   -0.8238   60.5298 C.3     1  ZINC000654382142    0.0800
      7 C7        -12.6455   -2.2446   60.3432 C.3     1  ZINC000654382142    0.0500
      8 H8        -12.2750   -2.8812   61.1466 H       1  ZINC000654382142    0.1400
      9 O9        -12.2036   -2.7590   59.0853 O.3     1  ZINC000654382142   -0.5200
     10 C10       -14.1751   -2.2208   60.3755 C.3     1  ZINC000654382142    0.4200
     11 F11       -14.6546   -1.5352   59.2543 F       1  ZINC000654382142   -0.1800
     12 F12       -14.6622   -3.5322   60.3638 F       1  ZINC000654382142   -0.1700
     13 F13       -14.6069   -1.5733   61.5380 F       1  ZINC000654382142   -0.1800
     14 C14       -10.0999   -0.4677   59.1986 C.2     1  ZINC000654382142    0.7100
     15 O15        -8.8909   -0.4720   59.0687 O.2     1  ZINC000654382142   -0.5600
     16 N16       -10.8871   -0.1034   58.1671 N.am    1  ZINC000654382142   -0.7500
     17 C17       -10.2861    0.2891   56.8899 C.3     1  ZINC000654382142    0.1400
     18 C18       -11.3703    0.3440   55.8117 C.3     1  ZINC000654382142   -0.1600
     19 C19       -10.8130    1.0297   54.5627 C.3     1  ZINC000654382142    0.1200
     20 N20       -11.1403    0.2303   53.3795 N.am    1  ZINC000654382142   -1.0000
     21 C21       -12.5069    0.2286   52.8517 C.3     1  ZINC000654382142    0.0900
     22 S22        -9.9655   -0.6716   52.6387 S.o2    1  ZINC000654382142    2.6100
     23 C23        -8.7143    0.5412   52.1346 C.3     1  ZINC000654382142   -0.6800
     24 O24        -9.4620   -1.5076   53.6716 O.2     1  ZINC000654382142   -0.9500
     25 O25       -10.6127   -1.2229   51.5000 O.2     1  ZINC000654382142   -0.9500
     26 H26        -7.7241    0.2976   65.1648 H       1  ZINC000654382142    0.0900
     27 H27        -7.9907    1.5369   63.9152 H       1  ZINC000654382142    0.0400
     28 H28        -9.3653    0.9157   64.8602 H       1  ZINC000654382142    0.0400
     29 H29       -10.4424    0.3687   62.7976 H       1  ZINC000654382142    0.0500
     30 H30        -9.0518    0.7816   61.7662 H       1  ZINC000654382142    0.0600
     31 H31        -8.8586   -1.6232   61.1132 H       1  ZINC000654382142    0.0900
     32 H32       -10.3032   -1.9832   62.0888 H       1  ZINC000654382142    0.1000
     33 H33       -12.3672   -0.4661   61.5266 H       1  ZINC000654382142    0.1000
     34 H34       -12.5533   -0.1667   59.7818 H       1  ZINC000654382142    0.1000
     35 H35       -11.2549   -2.9417   59.0464 H       1  ZINC000654382142    0.3900
     36 H36       -11.8516   -0.1012   58.2703 H       1  ZINC000654382142    0.3900
     37 H37        -9.8251    1.2716   56.9921 H       1  ZINC000654382142    0.0700
     38 H38        -9.5277   -0.4404   56.6059 H       1  ZINC000654382142    0.0700
     39 H39       -11.6844   -0.6690   55.5604 H       1  ZINC000654382142    0.0700
     40 H40       -12.2254    0.9077   56.1846 H       1  ZINC000654382142    0.0800
     41 H41       -11.2548    2.0214   54.4648 H       1  ZINC000654382142    0.0900
     42 H42        -9.7304    1.1215   54.6510 H       1  ZINC000654382142    0.1000
     43 H43       -12.6136    1.0267   52.1170 H       1  ZINC000654382142    0.0600
     44 H44       -12.7123   -0.7313   52.3779 H       1  ZINC000654382142    0.0700
     45 H45       -13.2117    0.3893   53.6676 H       1  ZINC000654382142    0.0700
     46 H46        -8.3348    1.0592   53.0155 H       1  ZINC000654382142    0.1300
     47 H47        -7.8934    0.0291   51.6325 H       1  ZINC000654382142    0.1300
     48 H48        -9.1627    1.2641   51.4531 H       1  ZINC000654382142    0.1300
@<TRIPOS>BOND
     1     1     2    1
     2     1    26    1
     3     1    27    1
     4     1    28    1
     5     2     3    1
     6     3     4    1
     7     3    29    1
     8     3    30    1
     9     4     5    1
    10     4    31    1
    11     4    32    1
    12     5     6    1
    13     5    14   am
    14     6     7    1
    15     6    33    1
    16     6    34    1
    17     7     8    1
    18     7     9    1
    19     7    10    1
    20     9    35    1
    21    10    11    1
    22    10    12    1
    23    10    13    1
    24    14    15    2
    25    14    16   am
    26    16    17    1
    27    16    36    1
    28    17    18    1
    29    17    37    1
    30    17    38    1
    31    18    19    1
    32    18    39    1
    33    18    40    1
    34    19    20    1
    35    19    41    1
    36    19    42    1
    37    20    21    1
    38    20    22   am
    39    21    43    1
    40    21    44    1
    41    21    45    1
    42    22    23    1
    43    22    24    2
    44    22    25    2
    45    23    46    1
    46    23    47    1
    47    23    48    1
@<TRIPOS>SUBSTRUCTURE
     1 ZINC000654382142        1 TEMP              0 ****  ****    0 ROOT


##########                                Name:    ZINC001061022329
##########                DOCK_Rotatable_Bonds:                   7
##########                         Heavy_Atoms:                  27
##########                    Molecular_Weight:             374.523
##########                DOCK_Rotatable_Bonds:                   7
##########                       Formal_Charge:           0.0800005
##########                     HBond_Acceptors:                   5
##########                        HBond_Donors:                   0
##########                         Heavy_Atoms:                  27
##########                          Grid_Score:          -30.262863
##########                     Grid_vdw_energy:          -28.819183
##########                      Grid_es_energy:           -1.443680
##########           Internal_energy_repulsive:           17.994068

@<TRIPOS>MOLECULE
ZINC001061022329
 61 64 1 0 0
SMALL
USER_CHARGES


@<TRIPOS>ATOM
      1 C1         -1.1207    3.9373   54.2258 C.3     1  ZINC001061022329   -0.1500
      2 C2         -2.1833    3.8135   53.1319 C.3     1  ZINC001061022329   -0.1200
      3 C3         -3.4301    4.6006   53.5405 C.3     1  ZINC001061022329    0.0800
      4 H4         -3.6554    4.4056   54.5890 H       1  ZINC001061022329    0.0600
      5 C5         -3.1763    6.0964   53.3431 C.3     1  ZINC001061022329   -0.1800
      6 O6         -4.5362    4.1943   52.7321 O.3     1  ZINC001061022329   -0.3500
      7 C7         -5.2699    3.0894   53.2638 C.3     1  ZINC001061022329    0.0500
      8 C8         -6.4208    2.7629   52.3473 C.2     1  ZINC001061022329    0.5200
      9 O9         -6.5693    3.3832   51.3157 O.2     1  ZINC001061022329   -0.5100
     10 N10        -7.2849    1.7816   52.6739 N.am    1  ZINC001061022329   -0.6100
     11 C11        -8.4056    1.4495   51.7844 C.3     1  ZINC001061022329    0.1100
     12 C12        -9.7127    1.5490   52.5797 C.3     1  ZINC001061022329   -0.1200
     13 C13        -9.5905    0.7098   53.8493 C.3     1  ZINC001061022329   -0.0900
     14 C14       -10.9125    0.5548   54.6136 C.3     1  ZINC001061022329    0.1200
     15 N15       -10.5230   -0.8583   54.7930 N.am    1  ZINC001061022329   -0.6400
     16 C16       -10.8308   -1.8155   55.6905 C.2     1  ZINC001061022329    0.5400
     17 O17       -10.3448   -2.9219   55.5879 O.2     1  ZINC001061022329   -0.5300
     18 C18       -11.7791   -1.5110   56.8215 C.3     1  ZINC001061022329   -0.0900
     19 H19       -12.7066   -1.1047   56.4182 H       1  ZINC001061022329    0.1000
     20 C20       -11.1395   -0.4862   57.7610 C.3     1  ZINC001061022329   -0.1000
     21 C21       -11.0119   -1.0875   59.1665 C.3     1  ZINC001061022329   -0.0600
     22 H22       -10.5112   -0.3923   59.8402 H       1  ZINC001061022329    0.0800
     23 C23       -10.2263   -2.3852   59.0487 C.2     1  ZINC001061022329   -0.1800
     24 C24       -10.7825   -3.2765   58.2317 C.2     1  ZINC001061022329   -0.1300
     25 C25       -12.0801   -2.7999   57.5970 C.3     1  ZINC001061022329   -0.0400
     26 H26       -12.4957   -3.5671   56.9439 H       1  ZINC001061022329    0.0900
     27 C27       -13.0577   -2.4631   58.7315 C.3     1  ZINC001061022329   -0.1100
     28 C28       -12.4200   -1.4221   59.6776 C.3     1  ZINC001061022329   -0.1100
     29 C29        -9.6620   -0.8024   53.5948 C.3     1  ZINC001061022329    0.1100
     30 C30        -8.4177    1.1253   54.7339 C.3     1  ZINC001061022329   -0.1100
     31 C31        -7.1158    1.0250   53.9215 C.3     1  ZINC001061022329    0.1100
     32 H32        -0.8595    4.9869   54.3614 H       1  ZINC001061022329    0.0500
     33 H33        -1.5131    3.5368   55.1604 H       1  ZINC001061022329    0.0600
     34 H34        -0.2325    3.3766   53.9347 H       1  ZINC001061022329    0.0600
     35 H35        -1.7909    4.2140   52.1972 H       1  ZINC001061022329    0.0800
     36 H36        -2.4445    2.7640   52.9962 H       1  ZINC001061022329    0.0700
     37 H37        -4.0645    6.6571   53.6342 H       1  ZINC001061022329    0.0600
     38 H38        -2.3327    6.4063   53.9598 H       1  ZINC001061022329    0.0700
     39 H39        -2.9510    6.2914   52.2946 H       1  ZINC001061022329    0.0700
     40 H40        -4.6136    2.2230   53.3457 H       1  ZINC001061022329    0.0800
     41 H41        -5.6536    3.3492   54.2505 H       1  ZINC001061022329    0.0800
     42 H42        -8.4307    2.1514   50.9507 H       1  ZINC001061022329    0.0900
     43 H43        -8.2839    0.4343   51.4066 H       1  ZINC001061022329    0.0800
     44 H44        -9.8985    2.5892   52.8470 H       1  ZINC001061022329    0.0800
     45 H45       -10.5376    1.1745   51.9734 H       1  ZINC001061022329    0.0800
     46 H46       -10.9517    1.1216   55.5437 H       1  ZINC001061022329    0.0800
     47 H47       -11.7980    0.6913   53.9928 H       1  ZINC001061022329    0.0900
     48 H48       -10.1502   -0.2200   57.3887 H       1  ZINC001061022329    0.0700
     49 H49       -11.7635    0.4066   57.8033 H       1  ZINC001061022329    0.0700
     50 H50        -9.3030   -2.5662   59.5790 H       1  ZINC001061022329    0.1200
     51 H51       -10.3521   -4.2478   58.0370 H       1  ZINC001061022329    0.1200
     52 H52       -13.9733   -2.0478   58.3105 H       1  ZINC001061022329    0.0700
     53 H53       -13.2932   -3.3696   59.2891 H       1  ZINC001061022329    0.0700
     54 H54       -12.3504   -1.8391   60.6822 H       1  ZINC001061022329    0.0700
     55 H55       -13.0380   -0.5245   59.6993 H       1  ZINC001061022329    0.0700
     56 H56       -10.1758   -1.0690   52.6712 H       1  ZINC001061022329    0.0900
     57 H57        -8.7072   -1.3142   53.7152 H       1  ZINC001061022329    0.0800
     58 H58        -8.5614    2.1517   55.0712 H       1  ZINC001061022329    0.0800
     59 H59        -8.3593    0.4619   55.5968 H       1  ZINC001061022329    0.0800
     60 H60        -6.9058   -0.0204   53.6955 H       1  ZINC001061022329    0.0700
     61 H61        -6.2928    1.4493   54.4964 H       1  ZINC001061022329    0.1000
@<TRIPOS>BOND
     1     1     2    1
     2     1    32    1
     3     1    33    1
     4     1    34    1
     5     2     3    1
     6     2    35    1
     7     2    36    1
     8     3     4    1
     9     3     5    1
    10     3     6    1
    11     5    37    1
    12     5    38    1
    13     5    39    1
    14     6     7    1
    15     7     8    1
    16     7    40    1
    17     7    41    1
    18     8     9    2
    19     8    10   am
    20    10    31    1
    21    10    11    1
    22    11    12    1
    23    11    42    1
    24    11    43    1
    25    12    13    1
    26    12    44    1
    27    12    45    1
    28    13    29    1
    29    13    14    1
    30    13    30    1
    31    14    15    1
    32    14    46    1
    33    14    47    1
    34    15    16   am
    35    15    29    1
    36    16    17    2
    37    16    18    1
    38    18    19    1
    39    18    25    1
    40    18    20    1
    41    20    21    1
    42    20    48    1
    43    20    49    1
    44    21    22    1
    45    21    28    1
    46    21    23    1
    47    23    24    2
    48    23    50    1
    49    24    25    1
    50    24    51    1
    51    25    26    1
    52    25    27    1
    53    27    28    1
    54    27    52    1
    55    27    53    1
    56    28    54    1
    57    28    55    1
    58    29    56    1
    59    29    57    1
    60    30    31    1
    61    30    58    1
    62    30    59    1
    63    31    60    1
    64    31    61    1
@<TRIPOS>SUBSTRUCTURE
     1 ZINC001061022329        1 TEMP              0 ****  ****    0 ROOT


##########                                Name:    ZINC000967287417
##########                DOCK_Rotatable_Bonds:                   7
##########                         Heavy_Atoms:                  25
##########                    Molecular_Weight:             347.414
##########                DOCK_Rotatable_Bonds:                   7
##########                       Formal_Charge:          -0.0200002
##########                     HBond_Acceptors:                   7
##########                        HBond_Donors:                   1
##########                         Heavy_Atoms:                  25
##########                          Grid_Score:          -30.248837
##########                     Grid_vdw_energy:          -30.148323
##########                      Grid_es_energy:           -0.100514
##########           Internal_energy_repulsive:            8.140491

@<TRIPOS>MOLECULE
ZINC000967287417
 50 52 1 0 0
SMALL
USER_CHARGES


@<TRIPOS>ATOM
      1 C1         -6.3250    3.9853   50.3990 C.3     1  ZINC000967287417    0.0300
      2 O2         -5.2619    3.9051   51.3506 O.3     1  ZINC000967287417   -0.3900
      3 C3         -3.9935    4.3221   50.8414 C.3     1  ZINC000967287417    0.1400
      4 C4         -2.9519    4.1964   51.9233 C.2     1  ZINC000967287417    0.0100
      5 C5         -3.1760    4.3229   53.2498 C.2     1  ZINC000967287417   -0.1900
      6 C6         -1.9447    4.1334   53.8966 C.2     1  ZINC000967287417   -0.1200
      7 C7         -1.0202    3.8980   52.9197 C.2     1  ZINC000967287417   -0.0700
      8 C8          0.4089    3.6436   53.1289 C.2     1  ZINC000967287417    0.6100
      9 O9          0.8632    3.6155   54.2575 O.2     1  ZINC000967287417   -0.5200
     10 N10         1.2192    3.4409   52.0712 N.am    1  ZINC000967287417   -0.7000
     11 C11         2.6465    3.1850   52.2801 C.3     1  ZINC000967287417    0.1600
     12 H12         2.9748    3.6797   53.1943 H       1  ZINC000967287417    0.1000
     13 C13         2.8829    1.6780   52.4017 C.3     1  ZINC000967287417    0.0400
     14 N14         2.4593    1.0133   51.1626 N.3     1  ZINC000967287417   -0.5300
     15 C15         2.5423   -0.4474   51.2939 C.3     1  ZINC000967287417    0.1300
     16 C16         1.6825   -1.0962   50.2399 C.2     1  ZINC000967287417    0.0200
     17 N17         2.0487   -1.4434   49.0399 N.2     1  ZINC000967287417   -0.3500
     18 O18         1.1364   -1.9426   48.4229 O.3     1  ZINC000967287417    0.1000
     19 C19         0.0150   -1.9923   49.1555 C.2     1  ZINC000967287417   -0.0300
     20 C20        -1.3197   -2.5444   48.7257 C.3     1  ZINC000967287417   -0.0800
     21 C21         0.3201   -1.4540   50.3604 C.2     1  ZINC000967287417   -0.2400
     22 C22         3.2427    1.4837   50.0131 C.3     1  ZINC000967287417    0.0500
     23 C23         3.0170    2.9850   49.8204 C.3     1  ZINC000967287417   -0.1100
     24 C24         3.4428    3.7282   51.0905 C.3     1  ZINC000967287417   -0.1000
     25 H25         4.5077    3.5730   51.2637 H       1  ZINC000967287417    0.0900
     26 C26         3.1642    5.2237   50.9257 C.3     1  ZINC000967287417   -0.1500
     27 O27        -1.6528    3.9351   51.7287 O.3     1  ZINC000967287417   -0.1600
     28 H28        -6.0964    3.3485   49.5444 H       1  ZINC000967287417    0.0500
     29 H29        -7.2535    3.6517   50.8626 H       1  ZINC000967287417    0.0900
     30 H30        -6.4361    5.0166   50.0643 H       1  ZINC000967287417    0.0500
     31 H31        -3.7167    3.6927   49.9957 H       1  ZINC000967287417    0.0900
     32 H32        -4.0561    5.3606   50.5163 H       1  ZINC000967287417    0.0700
     33 H33        -4.1240    4.5307   53.7234 H       1  ZINC000967287417    0.1600
     34 H34        -1.7636    4.1674   54.9608 H       1  ZINC000967287417    0.1600
     35 H35         0.8574    3.4645   51.1714 H       1  ZINC000967287417    0.4100
     36 H36         3.9430    1.4890   52.5710 H       1  ZINC000967287417    0.0500
     37 H37         2.3061    1.2861   53.2395 H       1  ZINC000967287417    0.0900
     38 H38         3.5768   -0.7657   51.1654 H       1  ZINC000967287417    0.0600
     39 H39         2.1911   -0.7440   52.2823 H       1  ZINC000967287417    0.0900
     40 H40        -1.2487   -2.9108   47.7017 H       1  ZINC000967287417    0.0800
     41 H41        -1.6036   -3.3638   49.3861 H       1  ZINC000967287417    0.0900
     42 H42        -2.0723   -1.7576   48.7786 H       1  ZINC000967287417    0.0900
     43 H43        -0.3291   -1.3223   51.2135 H       1  ZINC000967287417    0.1700
     44 H44         4.3011    1.2958   50.1936 H       1  ZINC000967287417    0.0400
     45 H45         2.9272    0.9509   49.1161 H       1  ZINC000967287417    0.0800
     46 H46         3.6108    3.3369   48.9767 H       1  ZINC000967287417    0.0700
     47 H47         1.9610    3.1723   49.6261 H       1  ZINC000967287417    0.0700
     48 H48         2.0988    5.3780   50.7548 H       1  ZINC000967287417    0.0600
     49 H49         3.4674    5.7516   51.8298 H       1  ZINC000967287417    0.0600
     50 H50         3.7278    5.6066   50.0750 H       1  ZINC000967287417    0.0600
@<TRIPOS>BOND
     1     1     2    1
     2     1    28    1
     3     1    29    1
     4     1    30    1
     5     2     3    1
     6     3     4    1
     7     3    31    1
     8     3    32    1
     9     4    27    1
    10     4     5    2
    11     5     6    1
    12     5    33    1
    13     6     7    2
    14     6    34    1
    15     7     8    1
    16     7    27    1
    17     8     9    2
    18     8    10   am
    19    10    11    1
    20    10    35    1
    21    11    12    1
    22    11    24    1
    23    11    13    1
    24    13    14    1
    25    13    36    1
    26    13    37    1
    27    14    15    1
    28    14    22    1
    29    15    16    1
    30    15    38    1
    31    15    39    1
    32    16    21    1
    33    16    17    2
    34    17    18    1
    35    18    19    1
    36    19    20    1
    37    19    21    2
    38    20    40    1
    39    20    41    1
    40    20    42    1
    41    21    43    1
    42    22    23    1
    43    22    44    1
    44    22    45    1
    45    23    24    1
    46    23    46    1
    47    23    47    1
    48    24    25    1
    49    24    26    1
    50    26    48    1
    51    26    49    1
    52    26    50    1
@<TRIPOS>SUBSTRUCTURE
     1 ZINC000967287417        1 TEMP              0 ****  ****    0 ROOT


##########                                Name:    ZINC001327099466
##########                DOCK_Rotatable_Bonds:                   7
##########                         Heavy_Atoms:                  27
##########                    Molecular_Weight:             374.483
##########                DOCK_Rotatable_Bonds:                   7
##########                       Formal_Charge:           0.0199998
##########                     HBond_Acceptors:                   7
##########                        HBond_Donors:                   1
##########                         Heavy_Atoms:                  27
##########                          Grid_Score:          -30.190159
##########                     Grid_vdw_energy:          -25.804163
##########                      Grid_es_energy:           -4.385996
##########           Internal_energy_repulsive:           10.100742

@<TRIPOS>MOLECULE
ZINC001327099466
 57 60 1 0 0
SMALL
USER_CHARGES


@<TRIPOS>ATOM
      1 O1         -6.8819    4.8531   56.1046 O.2     1  ZINC001327099466   -0.4800
      2 C2         -6.1726    3.9669   55.6745 C.2     1  ZINC001327099466    0.5300
      3 N3         -6.1122    2.7819   56.3138 N.am    1  ZINC001327099466   -0.6000
      4 C4         -6.8628    2.5752   57.4764 C.2     1  ZINC001327099466    0.2900
      5 N5         -7.8234    1.6933   57.6277 N.2     1  ZINC001327099466   -0.3100
      6 N6         -8.3176    1.8056   58.9336 N.pl3   1  ZINC001327099466   -0.3500
      7 C7         -9.3967    1.0048   59.5171 C.3     1  ZINC001327099466    0.1700
      8 C8        -10.4032    0.6334   58.4263 C.3     1  ZINC001327099466   -0.1300
      9 C9        -11.5302   -0.2030   59.0357 C.3     1  ZINC001327099466   -0.1200
     10 C10       -10.9459   -1.4785   59.6462 C.3     1  ZINC001327099466   -0.1300
     11 C11        -9.9393   -1.1070   60.7368 C.3     1  ZINC001327099466   -0.1200
     12 C12        -8.8123   -0.2707   60.1275 C.3     1  ZINC001327099466   -0.1300
     13 C13        -7.6253    2.7803   59.5605 C.2     1  ZINC001327099466    0.0700
     14 C14        -6.7164    3.2708   58.6879 C.2     1  ZINC001327099466   -0.2700
     15 C15        -5.3714    4.1875   54.4336 C.2     1  ZINC001327099466    0.5100
     16 O16        -5.8801    4.0188   53.3448 O.2     1  ZINC001327099466   -0.5100
     17 N17        -4.0833    4.5740   54.5229 N.am    1  ZINC001327099466   -0.5700
     18 C18        -3.2824    4.7949   53.3111 C.3     1  ZINC001327099466    0.0400
     19 C19        -2.0010    3.9610   53.4080 C.3     1  ZINC001327099466   -0.1300
     20 C20        -1.2745    4.2991   54.7119 C.3     1  ZINC001327099466   -0.1200
     21 C21        -2.1701    3.9488   55.9024 C.3     1  ZINC001327099466    0.0800
     22 H22        -2.4225    2.8890   55.8683 H       1  ZINC001327099466    0.0700
     23 O23        -1.4789    4.2355   57.1199 O.3     1  ZINC001327099466   -0.3500
     24 C24        -2.0038    3.5536   58.2607 C.3     1  ZINC001327099466    0.0600
     25 C25        -1.0243    2.5412   58.8778 C.3     1  ZINC001327099466   -0.1600
     26 C26        -0.4983    3.6976   59.7445 C.3     1  ZINC001327099466   -0.1400
     27 C27        -1.8780    4.3533   59.5681 C.3     1  ZINC001327099466   -0.1400
     28 C28        -3.4550    4.7880   55.8337 C.3     1  ZINC001327099466    0.0900
     29 H29        -5.5485    2.0724   55.9679 H       1  ZINC001327099466    0.4300
     30 H30        -9.8987    1.5822   60.2934 H       1  ZINC001327099466    0.1000
     31 H31       -10.8195    1.5421   57.9914 H       1  ZINC001327099466    0.0700
     32 H32        -9.9012    0.0560   57.6500 H       1  ZINC001327099466    0.0700
     33 H33       -12.0321    0.3744   59.8120 H       1  ZINC001327099466    0.0700
     34 H34       -12.2472   -0.4676   58.2585 H       1  ZINC001327099466    0.0700
     35 H35       -11.7486   -2.0743   60.0803 H       1  ZINC001327099466    0.0700
     36 H36       -10.4438   -2.0559   58.8698 H       1  ZINC001327099466    0.0700
     37 H37       -10.4413   -0.5297   61.5132 H       1  ZINC001327099466    0.0700
     38 H38        -9.5230   -2.0158   61.1718 H       1  ZINC001327099466    0.0700
     39 H39        -8.3103   -0.8481   59.3512 H       1  ZINC001327099466    0.0700
     40 H40        -8.0952   -0.0061   60.9046 H       1  ZINC001327099466    0.0700
     41 H41        -7.7693    3.1074   60.5796 H       1  ZINC001327099466    0.1800
     42 H42        -6.0075    4.0614   58.8855 H       1  ZINC001327099466    0.1700
     43 H43        -3.8530    4.4874   52.4348 H       1  ZINC001327099466    0.1600
     44 H44        -3.0257    5.8512   53.2303 H       1  ZINC001327099466    0.0700
     45 H45        -2.2550    2.9011   53.3974 H       1  ZINC001327099466    0.0700
     46 H46        -1.3537    4.1890   52.5612 H       1  ZINC001327099466    0.0900
     47 H47        -0.3498    3.7252   54.7717 H       1  ZINC001327099466    0.0800
     48 H48        -1.0427    5.3640   54.7328 H       1  ZINC001327099466    0.0800
     49 H49        -3.0017    3.1495   58.0902 H       1  ZINC001327099466    0.0700
     50 H50        -1.5138    1.7538   59.4508 H       1  ZINC001327099466    0.0900
     51 H51        -0.2899    2.1570   58.1700 H       1  ZINC001327099466    0.0700
     52 H52        -0.2804    3.4085   60.7726 H       1  ZINC001327099466    0.0700
     53 H53         0.3137    4.2571   59.2799 H       1  ZINC001327099466    0.0800
     54 H54        -1.8328    5.4320   59.4176 H       1  ZINC001327099466    0.0800
     55 H55        -2.6009    4.0612   60.3298 H       1  ZINC001327099466    0.0900
     56 H56        -3.2098    5.8425   55.9595 H       1  ZINC001327099466    0.0900
     57 H57        -4.1396    4.4733   56.6214 H       1  ZINC001327099466    0.1000
@<TRIPOS>BOND
     1     1     2    2
     2     2     3   am
     3     2    15    1
     4     3     4    1
     5     3    29    1
     6     4    14    1
     7     4     5    2
     8     5     6    1
     9     6     7    1
    10     6    13    1
    11     7    12    1
    12     7     8    1
    13     7    30    1
    14     8     9    1
    15     8    31    1
    16     8    32    1
    17     9    10    1
    18     9    33    1
    19     9    34    1
    20    10    11    1
    21    10    35    1
    22    10    36    1
    23    11    12    1
    24    11    37    1
    25    11    38    1
    26    12    39    1
    27    12    40    1
    28    13    14    2
    29    13    41    1
    30    14    42    1
    31    15    16    2
    32    15    17   am
    33    17    28    1
    34    17    18    1
    35    18    19    1
    36    18    43    1
    37    18    44    1
    38    19    20    1
    39    19    45    1
    40    19    46    1
    41    20    21    1
    42    20    47    1
    43    20    48    1
    44    21    22    1
    45    21    23    1
    46    21    28    1
    47    23    24    1
    48    24    27    1
    49    24    25    1
    50    24    49    1
    51    25    26    1
    52    25    50    1
    53    25    51    1
    54    26    27    1
    55    26    52    1
    56    26    53    1
    57    27    54    1
    58    27    55    1
    59    28    56    1
    60    28    57    1
@<TRIPOS>SUBSTRUCTURE
     1 ZINC001327099466        1 TEMP              0 ****  ****    0 ROOT


##########                                Name:    ZINC000110375116
##########                DOCK_Rotatable_Bonds:                  10
##########                         Heavy_Atoms:                  27
##########                    Molecular_Weight:             396.511
##########                DOCK_Rotatable_Bonds:                  10
##########                       Formal_Charge:        -2.23517e-07
##########                     HBond_Acceptors:                   9
##########                        HBond_Donors:                   0
##########                         Heavy_Atoms:                  27
##########                          Grid_Score:          -30.161774
##########                     Grid_vdw_energy:          -28.359280
##########                      Grid_es_energy:           -1.802494
##########           Internal_energy_repulsive:           35.362461

@<TRIPOS>MOLECULE
ZINC000110375116
 55 56 1 0 0
SMALL
USER_CHARGES


@<TRIPOS>ATOM
      1 C1         -8.0114    0.2151   63.8808 C.3     1  ZINC000110375116   -0.1700
      2 C2         -9.5213    0.0994   64.0999 C.3     1  ZINC000110375116    0.1000
      3 N3        -10.2161    1.0421   63.2196 N.am    1  ZINC000110375116   -0.6200
      4 C4        -10.7660    2.2852   63.7658 C.3     1  ZINC000110375116    0.1100
      5 C5         -9.8150    3.4430   63.4559 C.3     1  ZINC000110375116   -0.1700
      6 C6        -10.3494    0.7656   61.9073 C.2     1  ZINC000110375116    0.5100
      7 O7        -10.9233    1.5466   61.1782 O.2     1  ZINC000110375116   -0.5300
      8 C8         -9.7854   -0.5142   61.3458 C.3     1  ZINC000110375116   -0.1400
      9 C9         -8.6979   -0.1857   60.3209 C.3     1  ZINC000110375116   -0.0900
     10 C10        -9.2981   -0.2135   58.9138 C.3     1  ZINC000110375116   -0.1400
     11 C11        -8.4965    0.6852   58.0079 C.2     1  ZINC000110375116    0.5200
     12 O12        -7.5131    1.2535   58.4331 O.2     1  ZINC000110375116   -0.5300
     13 N13        -8.8724    0.8574   56.7250 N.am    1  ZINC000110375116   -0.6200
     14 C14        -8.0978    1.7274   55.8290 C.3     1  ZINC000110375116    0.0900
     15 C15        -7.6925    0.9187   54.5904 C.3     1  ZINC000110375116    0.1000
     16 N16        -8.8840    0.2395   54.0625 N.am    1  ZINC000110375116   -1.0000
     17 S17        -9.3453    0.4503   52.4861 S.o2    1  ZINC000110375116    2.7000
     18 O18        -8.2088    0.1418   51.6908 O.2     1  ZINC000110375116   -0.9400
     19 O19       -10.5963   -0.2080   52.3425 O.2     1  ZINC000110375116   -0.9500
     20 C20        -9.6589    2.1694   52.2598 C.ar    1  ZINC000110375116   -0.7400
     21 C21       -10.9408    2.6749   52.4114 C.ar    1  ZINC000110375116    0.0200
     22 C22       -11.1406    4.0343   52.2242 C.ar    1  ZINC000110375116   -0.1900
     23 C23       -10.0630    4.8343   51.8951 C.ar    1  ZINC000110375116    0.1500
     24 N24        -8.8568    4.3187   51.7589 N.ar    1  ZINC000110375116   -0.4900
     25 C25        -8.6288    3.0319   51.9346 C.ar    1  ZINC000110375116    0.2000
     26 C26        -9.6587   -0.6305   54.9585 C.3     1  ZINC000110375116    0.1000
     27 C27       -10.0608    0.1738   56.1956 C.3     1  ZINC000110375116    0.1000
     28 H28        -7.4945   -0.4862   64.5358 H       1  ZINC000110375116    0.0700
     29 H29        -7.7762   -0.0168   62.8421 H       1  ZINC000110375116    0.0600
     30 H30        -7.6880    1.2308   64.1085 H       1  ZINC000110375116    0.0600
     31 H31        -9.8447   -0.9163   63.8722 H       1  ZINC000110375116    0.0800
     32 H32        -9.7565    0.3314   65.1387 H       1  ZINC000110375116    0.0800
     33 H33       -11.7378    2.4823   63.3134 H       1  ZINC000110375116    0.0800
     34 H34       -10.8808    2.1883   64.8454 H       1  ZINC000110375116    0.0800
     35 H35       -10.2241    4.3680   63.8622 H       1  ZINC000110375116    0.0700
     36 H36        -8.8431    3.2460   63.9084 H       1  ZINC000110375116    0.0500
     37 H37        -9.7003    3.5399   62.3763 H       1  ZINC000110375116    0.0600
     38 H38        -9.3563   -1.1073   62.1533 H       1  ZINC000110375116    0.0900
     39 H39       -10.5812   -1.0806   60.8621 H       1  ZINC000110375116    0.0900
     40 H40        -8.2947    0.8064   60.5243 H       1  ZINC000110375116    0.0800
     41 H41        -7.8989   -0.9238   60.3897 H       1  ZINC000110375116    0.0800
     42 H42        -9.2738   -1.2328   58.5285 H       1  ZINC000110375116    0.1000
     43 H43       -10.3299    0.1360   58.9519 H       1  ZINC000110375116    0.1000
     44 H44        -8.7086    2.5780   55.5268 H       1  ZINC000110375116    0.0800
     45 H45        -7.2042    2.0801   56.3441 H       1  ZINC000110375116    0.1000
     46 H46        -7.2875    1.5890   53.8323 H       1  ZINC000110375116    0.1100
     47 H47        -6.9416    0.1784   54.8664 H       1  ZINC000110375116    0.0800
     48 H48       -11.7643    2.0254   52.6689 H       1  ZINC000110375116    0.1500
     49 H49       -12.1260    4.4624   52.3339 H       1  ZINC000110375116    0.1500
     50 H50       -10.2103    5.8939   51.7472 H       1  ZINC000110375116    0.1700
     51 H51        -7.6274    2.6459   51.8145 H       1  ZINC000110375116    0.1700
     52 H52       -10.5523   -0.9833   54.4435 H       1  ZINC000110375116    0.1100
     53 H53        -9.0478   -1.4811   55.2607 H       1  ZINC000110375116    0.0800
     54 H54       -10.4656   -0.4978   56.9528 H       1  ZINC000110375116    0.1100
     55 H55       -10.8113    0.9154   55.9219 H       1  ZINC000110375116    0.0800
@<TRIPOS>BOND
     1     1     2    1
     2     1    28    1
     3     1    29    1
     4     1    30    1
     5     2     3    1
     6     2    31    1
     7     2    32    1
     8     3     4    1
     9     3     6   am
    10     4     5    1
    11     4    33    1
    12     4    34    1
    13     5    35    1
    14     5    36    1
    15     5    37    1
    16     6     7    2
    17     6     8    1
    18     8     9    1
    19     8    38    1
    20     8    39    1
    21     9    10    1
    22     9    40    1
    23     9    41    1
    24    10    11    1
    25    10    42    1
    26    10    43    1
    27    11    12    2
    28    11    13   am
    29    13    27    1
    30    13    14    1
    31    14    15    1
    32    14    44    1
    33    14    45    1
    34    15    16    1
    35    15    46    1
    36    15    47    1
    37    16    17   am
    38    16    26    1
    39    17    18    2
    40    17    19    2
    41    17    20    1
    42    20    25   ar
    43    20    21   ar
    44    21    22   ar
    45    21    48    1
    46    22    23   ar
    47    22    49    1
    48    23    24   ar
    49    23    50    1
    50    24    25   ar
    51    25    51    1
    52    26    27    1
    53    26    52    1
    54    26    53    1
    55    27    54    1
    56    27    55    1
@<TRIPOS>SUBSTRUCTURE
     1 ZINC000110375116        1 TEMP              0 ****  ****    0 ROOT


##########                                Name:    ZINC000281092425
##########                DOCK_Rotatable_Bonds:                   8
##########                         Heavy_Atoms:                  23
##########                    Molecular_Weight:             332.304
##########                DOCK_Rotatable_Bonds:                   8
##########                       Formal_Charge:         2.98023e-08
##########                     HBond_Acceptors:                   9
##########                        HBond_Donors:                   2
##########                         Heavy_Atoms:                  23
##########                          Grid_Score:          -30.145052
##########                     Grid_vdw_energy:          -26.620651
##########                      Grid_es_energy:           -3.524401
##########           Internal_energy_repulsive:           18.649717

@<TRIPOS>MOLECULE
ZINC000281092425
 41 42 1 0 0
SMALL
USER_CHARGES


@<TRIPOS>ATOM
      1 O1        -10.7278   -2.7525   57.5725 O.2     1  ZINC000281092425   -0.1800
      2 N2        -11.3497   -2.4358   58.5707 N.pl3   1  ZINC000281092425    0.0400
      3 O3        -12.5240   -2.7406   58.6789 O.2     1  ZINC000281092425   -0.1500
      4 C4        -10.6768   -1.6859   59.6549 C.ar    1  ZINC000281092425   -0.1200
      5 C5         -9.3447   -1.3406   59.5312 C.ar    1  ZINC000281092425    0.0200
      6 C6         -8.7130   -0.6407   60.5410 C.ar    1  ZINC000281092425   -0.2200
      7 C7         -9.4168   -0.2817   61.6839 C.ar    1  ZINC000281092425    0.3000
      8 N8         -8.7786    0.4262   62.7048 N.pl3   1  ZINC000281092425   -0.7200
      9 C9         -8.6188   -0.1814   64.0282 C.3     1  ZINC000281092425    0.1200
     10 C10        -9.5427    0.5195   65.0262 C.3     1  ZINC000281092425   -0.0900
     11 H11       -10.5184    0.6796   64.5675 H       1  ZINC000281092425    0.0900
     12 C12        -9.7021   -0.3526   66.2731 C.3     1  ZINC000281092425    0.0800
     13 O13        -8.4264   -0.5414   66.8886 O.3     1  ZINC000281092425   -0.5700
     14 C14        -8.9376    1.8682   65.4211 C.3     1  ZINC000281092425   -0.1100
     15 H15        -7.8749    1.7651   65.6413 H       1  ZINC000281092425    0.0900
     16 C16        -9.1713    2.9260   64.3083 C.3     1  ZINC000281092425   -0.1600
     17 C17        -9.1786    4.2325   65.1413 C.3     1  ZINC000281092425    0.0500
     18 O18        -9.8244    3.8859   66.3768 O.3     1  ZINC000281092425   -0.3900
     19 C19        -9.6910    2.4776   66.6228 C.3     1  ZINC000281092425    0.0700
     20 C20       -10.7555   -0.6276   61.8096 C.ar    1  ZINC000281092425   -0.2800
     21 C21       -11.3865   -1.3255   60.7922 C.ar    1  ZINC000281092425    0.2300
     22 O22       -12.6970   -1.6650   60.9119 O.3     1  ZINC000281092425   -0.2900
     23 C23       -13.6488   -0.5998   60.8787 C.3     1  ZINC000281092425    0.4100
     24 F24       -13.8253   -0.1731   59.5580 F       1  ZINC000281092425   -0.1900
     25 F25       -14.8706   -1.0499   61.3905 F       1  ZINC000281092425   -0.1900
     26 H26        -8.7961   -1.6188   58.6435 H       1  ZINC000281092425    0.1600
     27 H27        -7.6715   -0.3726   60.4422 H       1  ZINC000281092425    0.1500
     28 H28        -8.4413    1.3201   62.5376 H       1  ZINC000281092425    0.4100
     29 H29        -8.8762   -1.2392   63.9758 H       1  ZINC000281092425    0.0800
     30 H30        -7.5841   -0.0750   64.3543 H       1  ZINC000281092425    0.0800
     31 H31       -10.3757    0.1379   66.9759 H       1  ZINC000281092425    0.0500
     32 H32       -10.1154   -1.3205   65.9891 H       1  ZINC000281092425    0.0500
     33 H33        -7.9990    0.2799   67.1676 H       1  ZINC000281092425    0.3800
     34 H34        -8.3541    2.9246   63.5869 H       1  ZINC000281092425    0.0800
     35 H35       -10.1300    2.7703   63.8134 H       1  ZINC000281092425    0.0800
     36 H36        -8.1584    4.5674   65.3288 H       1  ZINC000281092425    0.0600
     37 H37        -9.7431    5.0080   64.6238 H       1  ZINC000281092425    0.0900
     38 H38       -10.6775    2.0219   66.7072 H       1  ZINC000281092425    0.0800
     39 H39        -9.1273    2.3146   67.5414 H       1  ZINC000281092425    0.0700
     40 H40       -11.3050   -0.3498   62.6969 H       1  ZINC000281092425    0.1500
     41 H41       -13.2856    0.2311   61.4836 H       1  ZINC000281092425    0.1900
@<TRIPOS>BOND
     1     1     2    2
     2     2     3    2
     3     2     4    1
     4     4    21   ar
     5     4     5   ar
     6     5     6   ar
     7     5    26    1
     8     6     7   ar
     9     6    27    1
    10     7     8    1
    11     7    20   ar
    12     8     9    1
    13     8    28    1
    14     9    10    1
    15     9    29    1
    16     9    30    1
    17    10    11    1
    18    10    12    1
    19    10    14    1
    20    12    13    1
    21    12    31    1
    22    12    32    1
    23    13    33    1
    24    14    15    1
    25    14    19    1
    26    14    16    1
    27    16    17    1
    28    16    34    1
    29    16    35    1
    30    17    18    1
    31    17    36    1
    32    17    37    1
    33    18    19    1
    34    19    38    1
    35    19    39    1
    36    20    21   ar
    37    20    40    1
    38    21    22    1
    39    22    23    1
    40    23    24    1
    41    23    25    1
    42    23    41    1
@<TRIPOS>SUBSTRUCTURE
     1 ZINC000281092425        1 TEMP              0 ****  ****    0 ROOT


##########                                Name:    ZINC000906038034
##########                DOCK_Rotatable_Bonds:                   5
##########                         Heavy_Atoms:                  23
##########                    Molecular_Weight:             387.428
##########                DOCK_Rotatable_Bonds:                   5
##########                       Formal_Charge:         -0.00999987
##########                     HBond_Acceptors:                  12
##########                        HBond_Donors:                   0
##########                         Heavy_Atoms:                  23
##########                          Grid_Score:          -30.133900
##########                     Grid_vdw_energy:          -28.464573
##########                      Grid_es_energy:           -1.669327
##########           Internal_energy_repulsive:            4.897220

@<TRIPOS>MOLECULE
ZINC000906038034
 35 36 1 0 0
SMALL
USER_CHARGES


@<TRIPOS>ATOM
      1 C1         -6.1608    2.4767   53.3202 C.3     1  ZINC000906038034    0.1000
      2 N2         -7.0144    2.0055   54.4137 N.pl3   1  ZINC000906038034   -0.3700
      3 C3         -7.0607    2.5211   55.6613 C.2     1  ZINC000906038034    0.0600
      4 C4         -7.9667    1.8157   56.3716 C.2     1  ZINC000906038034   -0.2500
      5 C5         -8.5015    0.8228   55.5248 C.2     1  ZINC000906038034    0.1200
      6 C6         -9.5285   -0.1753   55.8938 C.2     1  ZINC000906038034    0.1500
      7 N7        -10.1622   -0.2228   57.0304 N.2     1  ZINC000906038034   -0.4300
      8 C8        -11.0451   -1.1838   57.1820 C.2     1  ZINC000906038034    0.0600
      9 C9        -11.8431   -1.3446   58.4501 C.3     1  ZINC000906038034   -0.5300
     10 S10       -10.9688   -2.4658   59.5766 S.o2    1  ZINC000906038034    2.4200
     11 O11       -11.7354   -2.6019   60.7653 O.2     1  ZINC000906038034   -0.9100
     12 O12       -10.5946   -3.6314   58.8551 O.2     1  ZINC000906038034   -0.9200
     13 C13        -9.4705   -1.5180   59.9606 C.3     1  ZINC000906038034   -0.6100
     14 C14        -9.8598   -0.1930   60.6190 C.3     1  ZINC000906038034   -0.4500
     15 S15        -8.9377    0.0063   62.1684 S.o     1  ZINC000906038034    1.3300
     16 O16        -9.3107   -1.0207   63.0770 O.2     1  ZINC000906038034   -0.7600
     17 C17        -9.5251    1.6060   62.7899 C.3     1  ZINC000906038034    0.1200
     18 F18       -10.9084    1.5489   62.9910 F       1  ZINC000906038034   -0.1900
     19 F19        -8.8894    1.8974   64.0016 F       1  ZINC000906038034   -0.1700
     20 F20        -9.2304    2.6056   61.8566 F       1  ZINC000906038034   -0.1600
     21 C21       -11.1919   -2.0097   56.1414 C.2     1  ZINC000906038034   -0.2300
     22 S22       -10.0965   -1.4867   54.8635 S.3     1  ZINC000906038034    0.1600
     23 N23        -7.9280    0.9460   54.3445 N.2     1  ZINC000906038034   -0.2400
     24 H24        -6.6856    3.2476   52.7559 H       1  ZINC000906038034    0.0800
     25 H25        -5.2398    2.8906   53.7308 H       1  ZINC000906038034    0.0900
     26 H26        -5.9218    1.6426   52.6605 H       1  ZINC000906038034    0.0900
     27 H27        -6.4752    3.3518   56.0267 H       1  ZINC000906038034    0.1800
     28 H28        -8.2340    1.9818   57.4047 H       1  ZINC000906038034    0.1600
     29 H29       -11.9661   -0.3726   58.9278 H       1  ZINC000906038034    0.1500
     30 H30       -12.8228   -1.7593   58.2128 H       1  ZINC000906038034    0.1600
     31 H31        -8.8423   -2.0917   60.6421 H       1  ZINC000906038034    0.1500
     32 H32        -8.9208   -1.3189   59.0406 H       1  ZINC000906038034    0.1500
     33 H33        -9.6219    0.6308   59.9461 H       1  ZINC000906038034    0.1600
     34 H34       -10.9292   -0.1925   60.8300 H       1  ZINC000906038034    0.1300
     35 H35       -11.8683   -2.8502   56.0908 H       1  ZINC000906038034    0.1900
@<TRIPOS>BOND
     1     1     2    1
     2     1    24    1
     3     1    25    1
     4     1    26    1
     5     2    23    1
     6     2     3    1
     7     3     4    2
     8     3    27    1
     9     4     5    1
    10     4    28    1
    11     5     6    1
    12     5    23    2
    13     6    22    1
    14     6     7    2
    15     7     8    1
    16     8     9    1
    17     8    21    2
    18     9    10    1
    19     9    29    1
    20     9    30    1
    21    10    11    2
    22    10    12    2
    23    10    13    1
    24    13    14    1
    25    13    31    1
    26    13    32    1
    27    14    15    1
    28    14    33    1
    29    14    34    1
    30    15    16    2
    31    15    17    1
    32    17    18    1
    33    17    19    1
    34    17    20    1
    35    21    22    1
    36    21    35    1
@<TRIPOS>SUBSTRUCTURE
     1 ZINC000906038034        1 TEMP              0 ****  ****    0 ROOT


##########                                Name:    ZINC000000992968
##########                DOCK_Rotatable_Bonds:                   8
##########                         Heavy_Atoms:                  27
##########                    Molecular_Weight:             384.772
##########                DOCK_Rotatable_Bonds:                   8
##########                       Formal_Charge:           0.0199999
##########                     HBond_Acceptors:                   7
##########                        HBond_Donors:                   0
##########                         Heavy_Atoms:                  27
##########                          Grid_Score:          -30.128149
##########                     Grid_vdw_energy:          -29.540943
##########                      Grid_es_energy:           -0.587206
##########           Internal_energy_repulsive:            6.650096

@<TRIPOS>MOLECULE
ZINC000000992968
 40 42 1 0 0
SMALL
USER_CHARGES


@<TRIPOS>ATOM
      1 O1         -8.3964   -0.0489   60.9582 O.2     1  ZINC000000992968   -0.4600
      2 C2         -9.2457    0.1141   61.8135 C.2     1  ZINC000000992968    0.5600
      3 O3        -10.5368    0.2825   61.4589 O.3     1  ZINC000000992968   -0.2900
      4 C4        -10.9743   -0.3368   60.3335 C.ar    1  ZINC000000992968    0.1200
      5 C5        -11.0196   -1.7256   60.2798 C.ar    1  ZINC000000992968   -0.1300
      6 C6        -11.4620   -2.3585   59.1409 C.ar    1  ZINC000000992968   -0.0400
      7 C7        -11.8675   -1.6016   58.0349 C.ar    1  ZINC000000992968   -0.1600
      8 C8        -12.3412   -2.2719   56.8167 C.2     1  ZINC000000992968    0.4000
      9 O9        -12.7205   -3.4229   56.8662 O.2     1  ZINC000000992968   -0.4200
     10 C10       -12.3559   -1.5296   55.5052 C.3     1  ZINC000000992968    0.0200
     11 O11       -10.9963   -1.1869   55.1278 O.3     1  ZINC000000992968   -0.3300
     12 C12       -10.8208   -0.6279   53.9146 C.2     1  ZINC000000992968    0.5100
     13 O13       -11.6412   -0.8102   53.0375 O.2     1  ZINC000000992968   -0.5000
     14 C14        -9.6312    0.2062   53.6512 C.ar    1  ZINC000000992968   -0.1300
     15 C15        -8.4973    0.0852   54.4577 C.ar    1  ZINC000000992968   -0.0500
     16 C16        -7.3895    0.8666   54.2063 C.ar    1  ZINC000000992968   -0.1200
     17 C17        -7.3996    1.7705   53.1567 C.ar    1  ZINC000000992968    0.0000
     18 Cl18       -6.0011    2.7511   52.8469 Cl      1  ZINC000000992968   -0.0500
     19 C19        -8.5210    1.8948   52.3529 C.ar    1  ZINC000000992968   -0.1200
     20 C20        -9.6332    1.1153   52.5909 C.ar    1  ZINC000000992968   -0.0400
     21 C21       -11.8204   -0.2034   58.0942 C.ar    1  ZINC000000992968   -0.0600
     22 C22       -11.3812    0.4197   59.2400 C.ar    1  ZINC000000992968   -0.1200
     23 C23        -8.8680    0.1216   63.2284 C.2     1  ZINC000000992968   -0.0700
     24 C24        -7.6336   -0.1793   63.7318 C.2     1  ZINC000000992968   -0.0900
     25 C25        -7.7227   -0.0447   65.1255 C.2     1  ZINC000000992968   -0.2300
     26 C26        -8.9909    0.3276   65.4092 C.2     1  ZINC000000992968    0.0200
     27 O27        -9.6761    0.4323   64.2634 O.3     1  ZINC000000992968   -0.1500
     28 H28       -10.7065   -2.3086   61.1335 H       1  ZINC000000992968    0.1400
     29 H29       -11.4962   -3.4372   59.0999 H       1  ZINC000000992968    0.1500
     30 H30       -12.7985   -2.1612   54.7351 H       1  ZINC000000992968    0.1100
     31 H31       -12.9445   -0.6182   55.6103 H       1  ZINC000000992968    0.1100
     32 H32        -8.4885   -0.6188   55.2767 H       1  ZINC000000992968    0.1500
     33 H33        -6.5121    0.7739   54.8292 H       1  ZINC000000992968    0.1500
     34 H34        -8.5227    2.6011   51.5359 H       1  ZINC000000992968    0.1500
     35 H35       -10.5066    1.2130   51.9634 H       1  ZINC000000992968    0.1500
     36 H36       -12.1318    0.3850   57.2438 H       1  ZINC000000992968    0.1400
     37 H37       -11.3448    1.4981   59.2869 H       1  ZINC000000992968    0.1400
     38 H38        -6.7589   -0.4652   63.1664 H       1  ZINC000000992968    0.1700
     39 H39        -6.9276   -0.2078   65.8378 H       1  ZINC000000992968    0.1700
     40 H40        -9.3855    0.5138   66.3971 H       1  ZINC000000992968    0.2200
@<TRIPOS>BOND
     1     1     2    2
     2     2     3    1
     3     2    23    1
     4     3     4    1
     5     4    22   ar
     6     4     5   ar
     7     5     6   ar
     8     5    28    1
     9     6     7   ar
    10     6    29    1
    11     7     8    1
    12     7    21   ar
    13     8     9    2
    14     8    10    1
    15    10    11    1
    16    10    30    1
    17    10    31    1
    18    11    12    1
    19    12    13    2
    20    12    14    1
    21    14    20   ar
    22    14    15   ar
    23    15    16   ar
    24    15    32    1
    25    16    17   ar
    26    16    33    1
    27    17    18    1
    28    17    19   ar
    29    19    20   ar
    30    19    34    1
    31    20    35    1
    32    21    22   ar
    33    21    36    1
    34    22    37    1
    35    23    27    1
    36    23    24    2
    37    24    25    1
    38    24    38    1
    39    25    26    2
    40    25    39    1
    41    26    27    1
    42    26    40    1
@<TRIPOS>SUBSTRUCTURE
     1 ZINC000000992968        1 TEMP              0 ****  ****    0 ROOT


##########                                Name:    ZINC000503413572
##########                DOCK_Rotatable_Bonds:                   7
##########                         Heavy_Atoms:                  26
##########                    Molecular_Weight:             355.375
##########                DOCK_Rotatable_Bonds:                   7
##########                       Formal_Charge:        -1.71363e-07
##########                     HBond_Acceptors:                   9
##########                        HBond_Donors:                   1
##########                         Heavy_Atoms:                  26
##########                          Grid_Score:          -30.125681
##########                     Grid_vdw_energy:          -30.018715
##########                      Grid_es_energy:           -0.106965
##########           Internal_energy_repulsive:           10.311787

@<TRIPOS>MOLECULE
ZINC000503413572
 44 47 1 0 0
SMALL
USER_CHARGES


@<TRIPOS>ATOM
      1 C1        -11.3445    1.1827   53.1691 C.3     1  ZINC000503413572   -0.1200
      2 C2         -9.8569    1.4077   53.0841 C.ar    1  ZINC000503413572   -0.0200
      3 C3         -9.3525    2.3837   52.2475 C.ar    1  ZINC000503413572   -0.1400
      4 C4         -7.9853    2.5912   52.1693 C.ar    1  ZINC000503413572    0.1300
      5 F5         -7.4936    3.5468   51.3506 F       1  ZINC000503413572   -0.1300
      6 C6         -7.1218    1.8208   52.9297 C.ar    1  ZINC000503413572   -0.1400
      7 C7         -7.6227    0.8436   53.7676 C.ar    1  ZINC000503413572   -0.0700
      8 C8         -8.9928    0.6377   53.8511 C.ar    1  ZINC000503413572    0.1000
      9 N9         -9.5034   -0.3538   54.7020 N.pl3   1  ZINC000503413572   -0.3100
     10 C10        -9.7003   -0.2489   56.0340 C.2     1  ZINC000503413572    0.1100
     11 C11       -10.2099   -1.4452   56.4532 C.2     1  ZINC000503413572   -0.1000
     12 C12       -10.5791   -1.7868   57.8399 C.2     1  ZINC000503413572    0.6100
     13 O13       -10.8103   -2.9420   58.1405 O.2     1  ZINC000503413572   -0.5300
     14 N14       -10.6601   -0.8183   58.7737 N.am    1  ZINC000503413572   -0.7200
     15 C15       -11.0250   -1.1577   60.1514 C.3     1  ZINC000503413572    0.1100
     16 C16        -9.7933   -1.0339   61.0505 C.3     1  ZINC000503413572    0.1000
     17 N17        -9.6050    0.3685   61.4303 N.pl3   1  ZINC000503413572   -0.4700
     18 C18        -9.9859    1.4617   60.7263 C.2     1  ZINC000503413572    0.1500
     19 N19        -9.6306    2.5111   61.4164 N.2     1  ZINC000503413572   -0.2900
     20 N20        -9.0536    2.1391   62.5038 N.2     1  ZINC000503413572   -0.2900
     21 C21        -9.0197    0.8355   62.5595 C.2     1  ZINC000503413572    0.2100
     22 C22        -8.4297    0.0040   63.6693 C.3     1  ZINC000503413572   -0.1000
     23 C23        -8.0735    0.7185   64.9745 C.3     1  ZINC000503413572   -0.1500
     24 C24        -9.2846   -0.2148   64.9192 C.3     1  ZINC000503413572   -0.1600
     25 N25       -10.3182   -2.2584   55.3884 N.2     1  ZINC000503413572   -0.2000
     26 N26        -9.9134   -1.6428   54.3326 N.2     1  ZINC000503413572   -0.0400
     27 H27       -11.7496    1.7452   54.0103 H       1  ZINC000503413572    0.0900
     28 H28       -11.8163    1.5194   52.2459 H       1  ZINC000503413572    0.0800
     29 H29       -11.5437    0.1207   53.3126 H       1  ZINC000503413572    0.0700
     30 H30       -10.0245    2.9852   51.6535 H       1  ZINC000503413572    0.1500
     31 H31        -6.0560    1.9837   52.8672 H       1  ZINC000503413572    0.1500
     32 H32        -6.9489    0.2426   54.3602 H       1  ZINC000503413572    0.1500
     33 H33        -9.4941    0.6143   56.6494 H       1  ZINC000503413572    0.2100
     34 H34       -10.4768    0.1035   58.5336 H       1  ZINC000503413572    0.4100
     35 H35       -11.7999   -0.4753   60.5006 H       1  ZINC000503413572    0.0800
     36 H36       -11.3991   -2.1810   60.1865 H       1  ZINC000503413572    0.0800
     37 H37        -9.9358   -1.6372   61.9471 H       1  ZINC000503413572    0.1100
     38 H38        -8.9134   -1.3857   60.5119 H       1  ZINC000503413572    0.1100
     39 H39       -10.4895    1.4644   59.7709 H       1  ZINC000503413572    0.2200
     40 H40        -7.7846   -0.8149   63.3511 H       1  ZINC000503413572    0.1200
     41 H41        -7.1937    0.3697   65.5152 H       1  ZINC000503413572    0.1100
     42 H42        -8.2658    1.7899   65.0304 H       1  ZINC000503413572    0.1100
     43 H43       -10.2738    0.2427   64.9388 H       1  ZINC000503413572    0.1000
     44 H44        -9.2016   -1.1775   65.4234 H       1  ZINC000503413572    0.1100
@<TRIPOS>BOND
     1     1     2    1
     2     1    27    1
     3     1    28    1
     4     1    29    1
     5     2     8   ar
     6     2     3   ar
     7     3     4   ar
     8     3    30    1
     9     4     5    1
    10     4     6   ar
    11     6     7   ar
    12     6    31    1
    13     7     8   ar
    14     7    32    1
    15     8     9    1
    16     9    26    1
    17     9    10    1
    18    10    11    2
    19    10    33    1
    20    11    12    1
    21    11    25    1
    22    12    13    2
    23    12    14   am
    24    14    15    1
    25    14    34    1
    26    15    16    1
    27    15    35    1
    28    15    36    1
    29    16    17    1
    30    16    37    1
    31    16    38    1
    32    17    21    1
    33    17    18    1
    34    18    19    2
    35    18    39    1
    36    19    20    1
    37    20    21    2
    38    21    22    1
    39    22    24    1
    40    22    23    1
    41    22    40    1
    42    23    24    1
    43    23    41    1
    44    23    42    1
    45    24    43    1
    46    24    44    1
    47    25    26    2
@<TRIPOS>SUBSTRUCTURE
     1 ZINC000503413572        1 TEMP              0 ****  ****    0 ROOT


##########                                Name:    ZINC000867639366
##########                DOCK_Rotatable_Bonds:                   6
##########                         Heavy_Atoms:                  25
##########                    Molecular_Weight:             388.509
##########                DOCK_Rotatable_Bonds:                   6
##########                       Formal_Charge:          0.00999961
##########                     HBond_Acceptors:                   9
##########                        HBond_Donors:                   1
##########                         Heavy_Atoms:                  25
##########                          Grid_Score:          -30.106522
##########                     Grid_vdw_energy:          -29.031893
##########                      Grid_es_energy:           -1.074630
##########           Internal_energy_repulsive:           40.253788

@<TRIPOS>MOLECULE
ZINC000867639366
 49 51 1 0 0
SMALL
USER_CHARGES


@<TRIPOS>ATOM
      1 C1         -7.7460    4.1183   49.4768 C.3     1  ZINC000867639366    0.0300
      2 O2         -8.1650    3.2665   50.5449 O.3     1  ZINC000867639366   -0.3800
      3 C3         -8.5318    3.9657   51.7361 C.3     1  ZINC000867639366    0.0800
      4 H4         -8.8925    4.9612   51.4771 H       1  ZINC000867639366    0.0800
      5 C5         -7.3127    4.0867   52.6533 C.3     1  ZINC000867639366   -0.1400
      6 C6         -6.7851    2.6903   52.9902 C.3     1  ZINC000867639366   -0.1200
      7 C7         -7.8710    1.9034   53.7308 C.3     1  ZINC000867639366    0.1500
      8 H8         -8.0710    2.3740   54.6934 H       1  ZINC000867639366    0.0800
      9 C9         -7.4014    0.4640   53.9512 C.3     1  ZINC000867639366   -0.1900
     10 N10        -9.0947    1.9062   52.9175 N.am    1  ZINC000867639366   -0.9800
     11 S11        -9.8479    0.4855   52.5219 S.o2    1  ZINC000867639366    2.6900
     12 O12       -11.0614    0.8417   51.8738 O.2     1  ZINC000867639366   -0.9500
     13 O13        -8.8591   -0.3393   51.9211 O.2     1  ZINC000867639366   -0.9400
     14 C14       -10.3025   -0.3018   54.0312 C.ar    1  ZINC000867639366   -0.6300
     15 C15       -10.8638    0.4383   55.0550 C.ar    1  ZINC000867639366   -0.0500
     16 C16       -11.2205   -0.1793   56.2392 C.ar    1  ZINC000867639366   -0.0400
     17 C17       -11.0164   -1.5371   56.3994 C.ar    1  ZINC000867639366   -0.6300
     18 S18       -11.4705   -2.3243   57.9089 S.o2    1  ZINC000867639366    2.7000
     19 O19       -12.6148   -1.6347   58.3927 O.2     1  ZINC000867639366   -0.9400
     20 O20       -11.4560   -3.7220   57.6527 O.2     1  ZINC000867639366   -0.9500
     21 N21       -10.2559   -2.0357   58.9970 N.am    1  ZINC000867639366   -1.0800
     22 C22        -9.9127   -0.6596   59.3637 C.3     1  ZINC000867639366    0.0800
     23 C23        -9.5565   -0.3860   60.8263 C.3     1  ZINC000867639366   -0.1800
     24 C24        -8.4619   -0.3741   59.7573 C.3     1  ZINC000867639366   -0.1900
     25 C25       -10.4564   -2.2774   55.3751 C.ar    1  ZINC000867639366   -0.0400
     26 C26       -10.1033   -1.6605   54.1894 C.ar    1  ZINC000867639366   -0.0400
     27 C27        -9.6381    3.1938   52.4619 C.3     1  ZINC000867639366    0.1200
     28 H28        -8.5569    4.7975   49.2142 H       1  ZINC000867639366    0.0400
     29 H29        -6.8764    4.6951   49.7918 H       1  ZINC000867639366    0.0400
     30 H30        -7.4849    3.5117   48.6096 H       1  ZINC000867639366    0.0900
     31 H31        -6.5333    4.6572   52.1480 H       1  ZINC000867639366    0.0700
     32 H32        -7.5990    4.5983   53.5722 H       1  ZINC000867639366    0.0700
     33 H33        -6.5218    2.1689   52.0699 H       1  ZINC000867639366    0.0800
     34 H34        -5.9029    2.7778   53.6245 H       1  ZINC000867639366    0.0800
     35 H35        -6.5718    0.4568   54.6583 H       1  ZINC000867639366    0.0700
     36 H36        -8.2239   -0.1294   54.3501 H       1  ZINC000867639366    0.0600
     37 H37        -7.0737    0.0394   53.0023 H       1  ZINC000867639366    0.1000
     38 H38       -11.0232    1.4991   54.9300 H       1  ZINC000867639366    0.1600
     39 H39       -11.6583    0.3990   57.0394 H       1  ZINC000867639366    0.1500
     40 H40        -9.7716   -2.7779   59.3915 H       1  ZINC000867639366    0.4200
     41 H41       -10.4497    0.1192   58.8220 H       1  ZINC000867639366    0.1400
     42 H42        -9.8595    0.5727   61.2472 H       1  ZINC000867639366    0.1100
     43 H43        -9.5776   -1.2301   61.5157 H       1  ZINC000867639366    0.1000
     44 H44        -7.7629   -1.2104   59.7435 H       1  ZINC000867639366    0.1000
     45 H45        -8.0447    0.5924   59.4750 H       1  ZINC000867639366    0.1000
     46 H46       -10.2973   -3.3383   55.5001 H       1  ZINC000867639366    0.1500
     47 H47        -9.6658   -2.2389   53.3892 H       1  ZINC000867639366    0.1500
     48 H48        -9.9822    3.7696   53.3211 H       1  ZINC000867639366    0.0900
     49 H49       -10.4701    3.0185   51.7800 H       1  ZINC000867639366    0.1000
@<TRIPOS>BOND
     1     1     2    1
     2     1    28    1
     3     1    29    1
     4     1    30    1
     5     2     3    1
     6     3     4    1
     7     3    27    1
     8     3     5    1
     9     5     6    1
    10     5    31    1
    11     5    32    1
    12     6     7    1
    13     6    33    1
    14     6    34    1
    15     7     8    1
    16     7     9    1
    17     7    10    1
    18     9    35    1
    19     9    36    1
    20     9    37    1
    21    10    11   am
    22    10    27    1
    23    11    12    2
    24    11    13    2
    25    11    14    1
    26    14    26   ar
    27    14    15   ar
    28    15    16   ar
    29    15    38    1
    30    16    17   ar
    31    16    39    1
    32    17    18    1
    33    17    25   ar
    34    18    19    2
    35    18    20    2
    36    18    21   am
    37    21    22    1
    38    21    40    1
    39    22    24    1
    40    22    23    1
    41    22    41    1
    42    23    24    1
    43    23    42    1
    44    23    43    1
    45    24    44    1
    46    24    45    1
    47    25    26   ar
    48    25    46    1
    49    26    47    1
    50    27    48    1
    51    27    49    1
@<TRIPOS>SUBSTRUCTURE
     1 ZINC000867639366        1 TEMP              0 ****  ****    0 ROOT


##########                                Name:    ZINC001143596311
##########                DOCK_Rotatable_Bonds:                   9
##########                         Heavy_Atoms:                  21
##########                    Molecular_Weight:             335.811
##########                DOCK_Rotatable_Bonds:                   9
##########                       Formal_Charge:          0.00999959
##########                     HBond_Acceptors:                   9
##########                        HBond_Donors:                   3
##########                         Heavy_Atoms:                  21
##########                          Grid_Score:          -30.093718
##########                     Grid_vdw_energy:          -30.371439
##########                      Grid_es_energy:            0.277722
##########           Internal_energy_repulsive:           16.308828

@<TRIPOS>MOLECULE
ZINC001143596311
 39 39 1 0 0
SMALL
USER_CHARGES


@<TRIPOS>ATOM
      1 C1        -10.2098    2.8213   65.1021 C.3     1  ZINC001143596311    0.0400
      2 O2        -10.1596    1.4925   65.6253 O.3     1  ZINC001143596311   -0.2600
      3 N3         -8.8342    0.8766   65.5592 N.3     1  ZINC001143596311   -0.3700
      4 C4         -8.8364   -0.4468   66.1970 C.3     1  ZINC001143596311    0.0000
      5 C5         -8.3622    0.7911   64.1708 C.3     1  ZINC001143596311    0.0400
      6 C6         -9.3475   -0.0406   63.3474 C.3     1  ZINC001143596311   -0.1300
      7 C7         -8.8519   -0.1362   61.9030 C.3     1  ZINC001143596311    0.1200
      8 N8         -9.8222   -0.8869   61.1023 N.am    1  ZINC001143596311   -0.7200
      9 C9         -9.9921   -0.5917   59.7983 C.2     1  ZINC001143596311    0.5600
     10 O10        -9.3390    0.2965   59.2862 O.2     1  ZINC001143596311   -0.5200
     11 C11       -10.9722   -1.3479   58.9910 C.ar    1  ZINC001143596311   -0.1500
     12 C12       -10.6693   -1.7062   57.6763 C.ar    1  ZINC001143596311   -0.0200
     13 C13       -11.5879   -2.4120   56.9278 C.ar    1  ZINC001143596311   -0.1300
     14 C14       -12.8089   -2.7648   57.4780 C.ar    1  ZINC001143596311    0.0700
     15 Cl15      -13.9601   -3.6531   56.5298 Cl      1  ZINC001143596311   -0.0200
     16 C16       -13.1150   -2.4121   58.7823 C.ar    1  ZINC001143596311   -0.6800
     17 S17       -14.6708   -2.8660   59.4738 S.o2    1  ZINC001143596311    2.7000
     18 N18       -14.5180   -2.7838   61.1206 N.am    1  ZINC001143596311   -1.2500
     19 O19       -15.5873   -1.8448   59.1044 O.2     1  ZINC001143596311   -0.9400
     20 O20       -14.8660   -4.2374   59.1569 O.2     1  ZINC001143596311   -0.9500
     21 C21       -12.2023   -1.7119   59.5423 C.ar    1  ZINC001143596311    0.0500
     22 H22        -9.5298    3.4598   65.6661 H       1  ZINC001143596311    0.0400
     23 H23        -9.9121    2.8104   64.0535 H       1  ZINC001143596311    0.0500
     24 H24       -11.2255    3.2073   65.1874 H       1  ZINC001143596311    0.0900
     25 H25        -9.5489   -1.0950   65.6866 H       1  ZINC001143596311    0.0400
     26 H26        -7.8391   -0.8822   66.1336 H       1  ZINC001143596311    0.0900
     27 H27        -9.1227   -0.3452   67.2437 H       1  ZINC001143596311    0.0800
     28 H28        -8.2915    1.7935   63.7486 H       1  ZINC001143596311    0.0500
     29 H29        -7.3805    0.3178   64.1492 H       1  ZINC001143596311    0.0900
     30 H30        -9.4223   -1.0415   63.7727 H       1  ZINC001143596311    0.0800
     31 H31       -10.3279    0.4355   63.3643 H       1  ZINC001143596311    0.0800
     32 H32        -8.7388    0.8664   61.4906 H       1  ZINC001143596311    0.0800
     33 H33        -7.8899   -0.6482   61.8821 H       1  ZINC001143596311    0.0800
     34 H34       -10.3425   -1.5965   61.5108 H       1  ZINC001143596311    0.4000
     35 H35        -9.7177   -1.4310   57.2459 H       1  ZINC001143596311    0.1500
     36 H36       -11.3548   -2.6898   55.9105 H       1  ZINC001143596311    0.1600
     37 H37       -13.8637   -3.3372   61.5752 H       1  ZINC001143596311    0.4200
     38 H38       -15.0826   -2.1822   61.6308 H       1  ZINC001143596311    0.4200
     39 H39       -12.4421   -1.4374   60.5590 H       1  ZINC001143596311    0.1700
@<TRIPOS>BOND
     1     1     2    1
     2     1    22    1
     3     1    23    1
     4     1    24    1
     5     2     3    1
     6     3     4    1
     7     3     5    1
     8     4    25    1
     9     4    26    1
    10     4    27    1
    11     5     6    1
    12     5    28    1
    13     5    29    1
    14     6     7    1
    15     6    30    1
    16     6    31    1
    17     7     8    1
    18     7    32    1
    19     7    33    1
    20     8     9   am
    21     8    34    1
    22     9    10    2
    23     9    11    1
    24    11    21   ar
    25    11    12   ar
    26    12    13   ar
    27    12    35    1
    28    13    14   ar
    29    13    36    1
    30    14    15    1
    31    14    16   ar
    32    16    17    1
    33    16    21   ar
    34    17    18   am
    35    17    19    2
    36    17    20    2
    37    18    37    1
    38    18    38    1
    39    21    39    1
@<TRIPOS>SUBSTRUCTURE
     1 ZINC001143596311        1 TEMP              0 ****  ****    0 ROOT


##########                                Name:    ZINC000507831344
##########                DOCK_Rotatable_Bonds:                   6
##########                         Heavy_Atoms:                  31
##########                    Molecular_Weight:              422.53
##########                DOCK_Rotatable_Bonds:                   6
##########                       Formal_Charge:          -0.0200002
##########                     HBond_Acceptors:                   8
##########                        HBond_Donors:                   2
##########                         Heavy_Atoms:                  31
##########                          Grid_Score:          -30.080986
##########                     Grid_vdw_energy:          -28.644978
##########                      Grid_es_energy:           -1.436009
##########           Internal_energy_repulsive:           26.629309

@<TRIPOS>MOLECULE
ZINC000507831344
 61 64 1 0 0
SMALL
USER_CHARGES


@<TRIPOS>ATOM
      1 C1         -5.9622    3.0868   52.8735 C.3     1  ZINC000507831344   -0.1000
      2 C2         -7.2651    3.0409   53.6294 C.ar    1  ZINC000507831344   -0.0800
      3 C3         -7.3521    2.3678   54.8340 C.ar    1  ZINC000507831344   -0.0800
      4 C4         -8.5774    2.3519   55.4988 C.ar    1  ZINC000507831344    0.0900
      5 N5         -8.7116    1.6822   56.7230 N.am    1  ZINC000507831344   -0.6700
      6 C6         -8.0016    2.0876   57.7943 C.2     1  ZINC000507831344    0.5100
      7 O7         -7.2462    3.0319   57.6993 O.2     1  ZINC000507831344   -0.5100
      8 C8         -8.1459    1.3677   59.1104 C.3     1  ZINC000507831344   -0.1400
      9 C9         -9.4298    1.8265   59.8046 C.3     1  ZINC000507831344   -0.0500
     10 C10        -9.2720    1.6855   61.2967 C.2     1  ZINC000507831344   -0.2200
     11 C11        -9.2077    0.4531   61.8662 C.2     1  ZINC000507831344    0.2100
     12 C12        -9.2934   -0.7864   61.0133 C.3     1  ZINC000507831344   -0.1400
     13 N13        -9.0648    0.3520   63.2146 N.pl3   1  ZINC000507831344   -0.3000
     14 N14        -8.9712   -0.7532   64.0689 N.am    1  ZINC000507831344   -0.5100
     15 C15        -8.8393   -0.3057   65.3324 C.2     1  ZINC000507831344    0.5500
     16 O16        -8.7320   -1.0017   66.3291 O.2     1  ZINC000507831344   -0.5400
     17 C17        -8.8462    1.0881   65.3075 C.2     1  ZINC000507831344   -0.3500
     18 C18        -8.9874    1.4880   63.9805 C.2     1  ZINC000507831344    0.3500
     19 N19        -9.0513    2.6970   63.4107 N.2     1  ZINC000507831344   -0.4800
     20 C20        -9.1845    2.8223   62.1078 C.2     1  ZINC000507831344    0.2500
     21 C21        -9.2537    4.1944   61.4883 C.3     1  ZINC000507831344   -0.1200
     22 C22        -9.6612    3.0069   54.9349 C.ar    1  ZINC000507831344    0.0800
     23 N23        -9.5426    3.6398   53.7830 N.ar    1  ZINC000507831344   -0.4900
     24 C24        -8.3939    3.6801   53.1269 C.ar    1  ZINC000507831344    0.2800
     25 N25        -8.3170    4.3609   51.9149 N.3     1  ZINC000507831344   -0.4800
     26 C26        -8.8125    3.5284   50.8114 C.3     1  ZINC000507831344    0.0600
     27 C27        -8.5790    4.2496   49.4819 C.3     1  ZINC000507831344   -0.1200
     28 C28        -9.3117    5.5940   49.5007 C.3     1  ZINC000507831344   -0.1200
     29 C29        -8.8119    6.4223   50.6876 C.3     1  ZINC000507831344   -0.1100
     30 C30        -9.0386    5.6381   51.9821 C.3     1  ZINC000507831344    0.0900
     31 H31       -10.1042    5.4469   52.1090 H       1  ZINC000507831344    0.0600
     32 C32        -8.5221    6.4535   53.1692 C.3     1  ZINC000507831344   -0.1400
     33 H33        -5.4265    4.0013   53.1281 H       1  ZINC000507831344    0.0700
     34 H34        -5.3549    2.2229   53.1434 H       1  ZINC000507831344    0.0600
     35 H35        -6.1629    3.0696   51.8022 H       1  ZINC000507831344    0.0800
     36 H36        -6.4912    1.8657   55.2498 H       1  ZINC000507831344    0.1500
     37 H37        -9.3155    0.9269   56.7990 H       1  ZINC000507831344    0.4100
     38 H38        -8.1925    0.2932   58.9335 H       1  ZINC000507831344    0.1000
     39 H39        -7.2889    1.5947   59.7446 H       1  ZINC000507831344    0.1000
     40 H40        -9.6239    2.8701   59.5568 H       1  ZINC000507831344    0.0900
     41 H41       -10.2646    1.2118   59.4678 H       1  ZINC000507831344    0.1000
     42 H42        -8.2921   -1.0817   60.7000 H       1  ZINC000507831344    0.1000
     43 H43        -9.7466   -1.5932   61.5894 H       1  ZINC000507831344    0.0800
     44 H44        -9.9036   -0.5808   60.1337 H       1  ZINC000507831344    0.1100
     45 H45        -8.9974   -1.6839   63.7970 H       1  ZINC000507831344    0.4400
     46 H46        -8.7583    1.7408   66.1634 H       1  ZINC000507831344    0.1700
     47 H47        -9.1774    4.9503   62.2700 H       1  ZINC000507831344    0.0900
     48 H48        -8.4314    4.3166   60.7833 H       1  ZINC000507831344    0.1000
     49 H49       -10.2022    4.3086   60.9636 H       1  ZINC000507831344    0.0900
     50 H50       -10.6137    2.9987   55.4438 H       1  ZINC000507831344    0.1600
     51 H51        -8.2804    2.5772   50.8068 H       1  ZINC000507831344    0.0700
     52 H52        -9.8791    3.3471   50.9438 H       1  ZINC000507831344    0.0500
     53 H53        -7.5113    4.4190   49.3424 H       1  ZINC000507831344    0.0700
     54 H54        -8.9610    3.6383   48.6643 H       1  ZINC000507831344    0.0700
     55 H55        -9.1127    6.1302   48.5729 H       1  ZINC000507831344    0.0700
     56 H56       -10.3835    5.4234   49.6012 H       1  ZINC000507831344    0.0600
     57 H57        -7.7479    6.6259   50.5671 H       1  ZINC000507831344    0.0700
     58 H58        -9.3603    7.3633   50.7314 H       1  ZINC000507831344    0.0700
     59 H59        -9.1163    7.3614   53.2724 H       1  ZINC000507831344    0.0600
     60 H60        -8.6033    5.8604   54.0802 H       1  ZINC000507831344    0.0500
     61 H61        -7.4785    6.7194   53.0007 H       1  ZINC000507831344    0.0600
@<TRIPOS>BOND
     1     1     2    1
     2     1    33    1
     3     1    34    1
     4     1    35    1
     5     2    24   ar
     6     2     3   ar
     7     3     4   ar
     8     3    36    1
     9     4     5    1
    10     4    22   ar
    11     5     6   am
    12     5    37    1
    13     6     7    2
    14     6     8    1
    15     8     9    1
    16     8    38    1
    17     8    39    1
    18     9    10    1
    19     9    40    1
    20     9    41    1
    21    10    20    1
    22    10    11    2
    23    11    12    1
    24    11    13    1
    25    12    42    1
    26    12    43    1
    27    12    44    1
    28    13    18    1
    29    13    14    1
    30    14    15   am
    31    14    45    1
    32    15    16    2
    33    15    17    1
    34    17    18    2
    35    17    46    1
    36    18    19    1
    37    19    20    2
    38    20    21    1
    39    21    47    1
    40    21    48    1
    41    21    49    1
    42    22    23   ar
    43    22    50    1
    44    23    24   ar
    45    24    25    1
    46    25    30    1
    47    25    26    1
    48    26    27    1
    49    26    51    1
    50    26    52    1
    51    27    28    1
    52    27    53    1
    53    27    54    1
    54    28    29    1
    55    28    55    1
    56    28    56    1
    57    29    30    1
    58    29    57    1
    59    29    58    1
    60    30    31    1
    61    30    32    1
    62    32    59    1
    63    32    60    1
    64    32    61    1
@<TRIPOS>SUBSTRUCTURE
     1 ZINC000507831344        1 TEMP              0 ****  ****    0 ROOT


##########                                Name:    ZINC000546115054
##########                DOCK_Rotatable_Bonds:                  10
##########                         Heavy_Atoms:                  26
##########                    Molecular_Weight:             363.457
##########                DOCK_Rotatable_Bonds:                  10
##########                       Formal_Charge:        -4.39584e-07
##########                     HBond_Acceptors:                   7
##########                        HBond_Donors:                   2
##########                         Heavy_Atoms:                  26
##########                          Grid_Score:          -30.077904
##########                     Grid_vdw_energy:          -29.787161
##########                      Grid_es_energy:           -0.290743
##########           Internal_energy_repulsive:           18.499922

@<TRIPOS>MOLECULE
ZINC000546115054
 55 56 1 0 0
SMALL
USER_CHARGES


@<TRIPOS>ATOM
      1 C1        -14.2087   -2.6673   59.6649 C.3     1  ZINC000546115054   -0.1500
      2 C2        -13.0514   -2.2486   58.7558 C.3     1  ZINC000546115054    0.0600
      3 O3        -12.4332   -1.0728   59.2827 O.3     1  ZINC000546115054   -0.3700
      4 C4        -11.1266   -1.2932   59.8177 C.3     1  ZINC000546115054    0.0500
      5 H5        -10.9076   -2.3610   59.8159 H       1  ZINC000546115054    0.0700
      6 C6        -11.0645   -0.7607   61.2517 C.3     1  ZINC000546115054    0.0400
      7 O7         -9.7413   -0.9297   61.7643 O.3     1  ZINC000546115054   -0.3700
      8 C8         -8.7374   -0.2238   61.0321 C.3     1  ZINC000546115054    0.0600
      9 C9         -8.7061   -0.7346   59.5893 C.3     1  ZINC000546115054   -0.1600
     10 C10       -10.0919   -0.5568   58.9613 C.3     1  ZINC000546115054    0.1700
     11 H11       -10.3412    0.5036   58.9222 H       1  ZINC000546115054    0.1000
     12 N12       -10.0899   -1.1102   57.6048 N.am    1  ZINC000546115054   -0.7300
     13 C13        -9.8074   -0.3158   56.5534 C.2     1  ZINC000546115054    0.7200
     14 O14        -9.5557    0.8605   56.7305 O.2     1  ZINC000546115054   -0.5900
     15 N15        -9.8040   -0.8253   55.3056 N.am    1  ZINC000546115054   -0.7200
     16 C16        -9.4987    0.0387   54.1625 C.3     1  ZINC000546115054    0.1600
     17 H17        -9.7918    1.0630   54.3928 H       1  ZINC000546115054    0.1200
     18 C18        -7.9969   -0.0093   53.8737 C.3     1  ZINC000546115054   -0.1000
     19 C19        -7.5322    1.3449   53.4038 C.ar    1  ZINC000546115054   -0.0800
     20 C20        -7.7722    1.7449   52.1024 C.ar    1  ZINC000546115054   -0.1100
     21 C21        -7.3459    2.9872   51.6715 C.ar    1  ZINC000546115054   -0.1200
     22 C22        -6.6799    3.8297   52.5417 C.ar    1  ZINC000546115054   -0.1200
     23 C23        -6.4406    3.4301   53.8432 C.ar    1  ZINC000546115054   -0.1200
     24 C24        -6.8707    2.1897   54.2756 C.ar    1  ZINC000546115054   -0.1100
     25 C25       -10.2585   -0.4414   52.9528 C.2     1  ZINC000546115054    0.5000
     26 O26        -9.8447   -1.3840   52.3116 O.2     1  ZINC000546115054   -0.5200
     27 N27       -11.3979    0.1766   52.5836 N.am    1  ZINC000546115054   -0.6200
     28 C28       -12.1374   -0.2912   51.4088 C.3     1  ZINC000546115054    0.0800
     29 C29       -11.8967    1.3163   53.3572 C.3     1  ZINC000546115054    0.0700
     30 H30       -14.6803   -3.5641   59.2630 H       1  ZINC000546115054    0.0700
     31 H31       -13.8284   -2.8739   60.6652 H       1  ZINC000546115054    0.0600
     32 H32       -14.9418   -1.8622   59.7139 H       1  ZINC000546115054    0.0600
     33 H33       -12.3183   -3.0538   58.7067 H       1  ZINC000546115054    0.0500
     34 H34       -13.4317   -2.0420   57.7554 H       1  ZINC000546115054    0.0500
     35 H35       -11.3243    0.2978   61.2580 H       1  ZINC000546115054    0.0600
     36 H36       -11.7688   -1.3118   61.8749 H       1  ZINC000546115054    0.1000
     37 H37        -8.9668    0.8418   61.0355 H       1  ZINC000546115054    0.0600
     38 H38        -7.7654   -0.3879   61.4971 H       1  ZINC000546115054    0.1000
     39 H39        -7.9717   -0.1671   59.0178 H       1  ZINC000546115054    0.0900
     40 H40        -8.4370   -1.7909   59.5827 H       1  ZINC000546115054    0.0800
     41 H41       -10.2920   -2.0483   57.4634 H       1  ZINC000546115054    0.3900
     42 H42       -10.0036   -1.7639   55.1644 H       1  ZINC000546115054    0.4000
     43 H43        -7.4608   -0.2822   54.7826 H       1  ZINC000546115054    0.0900
     44 H44        -7.7995   -0.7502   53.0990 H       1  ZINC000546115054    0.1100
     45 H45        -8.2926    1.0867   51.4226 H       1  ZINC000546115054    0.1200
     46 H46        -7.5328    3.2994   50.6546 H       1  ZINC000546115054    0.1200
     47 H47        -6.3462    4.8000   52.2047 H       1  ZINC000546115054    0.1200
     48 H48        -5.9200    4.0883   54.5231 H       1  ZINC000546115054    0.1200
     49 H49        -6.6837    1.8774   55.2925 H       1  ZINC000546115054    0.1200
     50 H50       -12.8611   -1.0476   51.7125 H       1  ZINC000546115054    0.0600
     51 H51       -12.6600    0.5484   50.9504 H       1  ZINC000546115054    0.0700
     52 H52       -11.4413   -0.7224   50.6894 H       1  ZINC000546115054    0.0800
     53 H53       -11.4802    2.2394   52.9540 H       1  ZINC000546115054    0.0600
     54 H54       -12.9843    1.3504   53.2938 H       1  ZINC000546115054    0.0800
     55 H55       -11.5968    1.2073   54.3994 H       1  ZINC000546115054    0.0700
@<TRIPOS>BOND
     1     1     2    1
     2     1    30    1
     3     1    31    1
     4     1    32    1
     5     2     3    1
     6     2    33    1
     7     2    34    1
     8     3     4    1
     9     4     5    1
    10     4    10    1
    11     4     6    1
    12     6     7    1
    13     6    35    1
    14     6    36    1
    15     7     8    1
    16     8     9    1
    17     8    37    1
    18     8    38    1
    19     9    10    1
    20     9    39    1
    21     9    40    1
    22    10    11    1
    23    10    12    1
    24    12    13   am
    25    12    41    1
    26    13    14    2
    27    13    15   am
    28    15    16    1
    29    15    42    1
    30    16    17    1
    31    16    18    1
    32    16    25    1
    33    18    19    1
    34    18    43    1
    35    18    44    1
    36    19    24   ar
    37    19    20   ar
    38    20    21   ar
    39    20    45    1
    40    21    22   ar
    41    21    46    1
    42    22    23   ar
    43    22    47    1
    44    23    24   ar
    45    23    48    1
    46    24    49    1
    47    25    26    2
    48    25    27   am
    49    27    28    1
    50    27    29    1
    51    28    50    1
    52    28    51    1
    53    28    52    1
    54    29    53    1
    55    29    54    1
    56    29    55    1
@<TRIPOS>SUBSTRUCTURE
     1 ZINC000546115054        1 TEMP              0 ****  ****    0 ROOT


##########                                Name:    ZINC000859202493
##########                DOCK_Rotatable_Bonds:                  11
##########                         Heavy_Atoms:                  25
##########                    Molecular_Weight:             382.404
##########                DOCK_Rotatable_Bonds:                  11
##########                       Formal_Charge:          -0.0200009
##########                     HBond_Acceptors:                  10
##########                        HBond_Donors:                   3
##########                         Heavy_Atoms:                  25
##########                          Grid_Score:          -30.060635
##########                     Grid_vdw_energy:          -28.470093
##########                      Grid_es_energy:           -1.590542
##########           Internal_energy_repulsive:           22.553253

@<TRIPOS>MOLECULE
ZINC000859202493
 46 46 1 0 0
SMALL
USER_CHARGES


@<TRIPOS>ATOM
      1 C1        -14.4271    2.5254   60.6284 C.3     1  ZINC000859202493   -0.1500
      2 C2        -13.6358    1.2253   60.4725 C.3     1  ZINC000859202493   -0.1200
      3 C3        -14.4429    0.0638   61.0559 C.3     1  ZINC000859202493   -0.1000
      4 H4        -15.3916   -0.0216   60.5261 H       1  ZINC000859202493    0.0700
      5 C5        -14.7093    0.3227   62.5402 C.3     1  ZINC000859202493   -0.1600
      6 C6        -13.6522   -1.2365   60.8989 C.3     1  ZINC000859202493   -0.1200
      7 C7        -13.3906   -1.4982   59.4143 C.3     1  ZINC000859202493    0.1600
      8 H8        -12.8297   -0.6646   58.9917 H       1  ZINC000859202493    0.1000
      9 C9        -14.7247   -1.6401   58.6787 C.3     1  ZINC000859202493    0.0500
     10 O10       -15.5415   -2.5986   59.3541 O.3     1  ZINC000859202493   -0.5700
     11 N11       -12.6170   -2.7332   59.2650 N.am    1  ZINC000859202493   -1.1000
     12 S12       -11.3853   -2.8103   58.1606 S.o2    1  ZINC000859202493    2.6900
     13 O13       -10.7438   -4.0622   58.3619 O.2     1  ZINC000859202493   -0.9500
     14 O14       -11.9388   -2.4121   56.9139 O.2     1  ZINC000859202493   -0.9500
     15 C15       -10.2110   -1.5728   58.6017 C.ar    1  ZINC000859202493   -0.6600
     16 C16        -9.7632   -0.6754   57.6501 C.ar    1  ZINC000859202493   -0.0300
     17 C17        -8.8412    0.2970   57.9921 C.ar    1  ZINC000859202493   -0.1100
     18 C18        -8.3654    0.3748   59.2862 C.ar    1  ZINC000859202493   -0.0600
     19 C19        -8.8136   -0.5250   60.2446 C.ar    1  ZINC000859202493    0.1200
     20 N20        -8.3338   -0.4486   61.5567 N.am    1  ZINC000859202493   -0.6500
     21 C21        -9.0518    0.1915   62.5007 C.2     1  ZINC000859202493    0.4800
     22 O22       -10.1140    0.7013   62.2129 O.2     1  ZINC000859202493   -0.4500
     23 C23        -8.5350    0.2737   63.9139 C.3     1  ZINC000859202493    0.4600
     24 F24        -9.1601   -0.7028   64.6967 F       1  ZINC000859202493   -0.1500
     25 F25        -7.1524    0.0600   63.9180 F       1  ZINC000859202493   -0.1600
     26 F26        -8.8125    1.5404   64.4390 F       1  ZINC000859202493   -0.1600
     27 C27        -9.7433   -1.4969   59.8992 C.ar    1  ZINC000859202493   -0.0300
     28 H28       -13.8521    3.3528   60.2127 H       1  ZINC000859202493    0.0500
     29 H29       -15.3755    2.4394   60.0979 H       1  ZINC000859202493    0.0500
     30 H30       -14.6176    2.7103   61.6855 H       1  ZINC000859202493    0.0600
     31 H31       -13.4453    1.0404   59.4152 H       1  ZINC000859202493    0.0600
     32 H32       -12.6875    1.3113   61.0029 H       1  ZINC000859202493    0.0600
     33 H33       -15.2843   -0.5048   62.9558 H       1  ZINC000859202493    0.0500
     34 H34       -13.7605    0.4081   63.0700 H       1  ZINC000859202493    0.0600
     35 H35       -15.2726    1.2490   62.6521 H       1  ZINC000859202493    0.0600
     36 H36       -12.7017   -1.1496   61.4254 H       1  ZINC000859202493    0.0800
     37 H37       -14.2255   -2.0634   61.3181 H       1  ZINC000859202493    0.0800
     38 H38       -15.2342   -0.6767   58.6611 H       1  ZINC000859202493    0.0600
     39 H39       -14.5426   -1.9735   57.6571 H       1  ZINC000859202493    0.0600
     40 H40       -15.1498   -3.4811   59.4075 H       1  ZINC000859202493    0.3800
     41 H41       -12.8260   -3.5057   59.8130 H       1  ZINC000859202493    0.4200
     42 H42       -10.1338   -0.7341   56.6374 H       1  ZINC000859202493    0.1500
     43 H43        -8.4927    0.9962   57.2463 H       1  ZINC000859202493    0.1400
     44 H44        -7.6451    1.1341   59.5525 H       1  ZINC000859202493    0.1400
     45 H45        -7.4843   -0.8565   61.7870 H       1  ZINC000859202493    0.4200
     46 H46       -10.0938   -2.1980   60.6422 H       1  ZINC000859202493    0.1500
@<TRIPOS>BOND
     1     1     2    1
     2     1    28    1
     3     1    29    1
     4     1    30    1
     5     2     3    1
     6     2    31    1
     7     2    32    1
     8     3     4    1
     9     3     5    1
    10     3     6    1
    11     5    33    1
    12     5    34    1
    13     5    35    1
    14     6     7    1
    15     6    36    1
    16     6    37    1
    17     7     8    1
    18     7     9    1
    19     7    11    1
    20     9    10    1
    21     9    38    1
    22     9    39    1
    23    10    40    1
    24    11    12   am
    25    11    41    1
    26    12    13    2
    27    12    14    2
    28    12    15    1
    29    15    27   ar
    30    15    16   ar
    31    16    17   ar
    32    16    42    1
    33    17    18   ar
    34    17    43    1
    35    18    19   ar
    36    18    44    1
    37    19    20    1
    38    19    27   ar
    39    20    21   am
    40    20    45    1
    41    21    22    2
    42    21    23    1
    43    23    24    1
    44    23    25    1
    45    23    26    1
    46    27    46    1
@<TRIPOS>SUBSTRUCTURE
     1 ZINC000859202493        1 TEMP              0 ****  ****    0 ROOT


##########                                Name:    ZINC000182378855
##########                DOCK_Rotatable_Bonds:                   8
##########                         Heavy_Atoms:                  27
##########                    Molecular_Weight:              394.83
##########                DOCK_Rotatable_Bonds:                   8
##########                       Formal_Charge:          -0.0200001
##########                     HBond_Acceptors:                   8
##########                        HBond_Donors:                   1
##########                         Heavy_Atoms:                  27
##########                          Grid_Score:          -30.042431
##########                     Grid_vdw_energy:          -29.429691
##########                      Grid_es_energy:           -0.612739
##########           Internal_energy_repulsive:           12.184895

@<TRIPOS>MOLECULE
ZINC000182378855
 47 49 1 0 0
SMALL
USER_CHARGES


@<TRIPOS>ATOM
      1 C1         -6.9495    3.8346   49.7203 C.3     1  ZINC000182378855    0.0300
      2 O2         -7.3960    3.1953   50.9178 O.3     1  ZINC000182378855   -0.3900
      3 C3         -6.4922    3.3241   52.0172 C.3     1  ZINC000182378855    0.0600
      4 C4         -7.0703    2.6079   53.2393 C.3     1  ZINC000182378855    0.0700
      5 O5         -7.4800    1.2897   52.8693 O.3     1  ZINC000182378855   -0.2900
      6 C6         -8.2348    0.6050   53.7651 C.ar    1  ZINC000182378855    0.3300
      7 C7         -8.3536    1.0771   55.0654 C.ar    1  ZINC000182378855   -0.1300
      8 C8         -9.1337    0.3614   55.9756 C.ar    1  ZINC000182378855   -0.0600
      9 C9         -9.2906    0.8264   57.3736 C.2     1  ZINC000182378855    0.5600
     10 O10        -9.0035    1.9694   57.6696 O.2     1  ZINC000182378855   -0.5200
     11 N11        -9.7517   -0.0184   58.3170 N.am    1  ZINC000182378855   -0.7100
     12 C12        -9.9086    0.4419   59.6990 C.3     1  ZINC000182378855    0.1200
     13 H13       -10.3753    1.4266   59.7219 H       1  ZINC000182378855    0.1100
     14 C14        -8.5409    0.4741   60.4174 C.3     1  ZINC000182378855   -0.1700
     15 C15        -8.7062   -0.5249   61.5840 C.3     1  ZINC000182378855    0.0400
     16 O16        -9.7588   -1.4178   61.1590 O.3     1  ZINC000182378855   -0.3600
     17 C17       -10.7382   -0.5728   60.5166 C.3     1  ZINC000182378855    0.1100
     18 H18       -11.3414   -0.0558   61.2630 H       1  ZINC000182378855    0.1000
     19 C19       -11.6169   -1.3887   59.6037 C.ar    1  ZINC000182378855   -0.0500
     20 C20       -11.1657   -2.5985   59.1106 C.ar    1  ZINC000182378855   -0.1100
     21 C21       -11.9726   -3.3510   58.2774 C.ar    1  ZINC000182378855   -0.0800
     22 C22       -13.2279   -2.8885   57.9275 C.ar    1  ZINC000182378855   -0.0700
     23 Cl23      -14.2387   -3.8302   56.8763 Cl      1  ZINC000182378855   -0.0400
     24 C24       -13.6786   -1.6729   58.4172 C.ar    1  ZINC000182378855    0.1200
     25 F25       -14.9049   -1.2196   58.0768 F       1  ZINC000182378855   -0.1200
     26 C26       -12.8714   -0.9238   59.2556 C.ar    1  ZINC000182378855   -0.1300
     27 C27        -9.7638   -0.8065   55.5319 C.ar    1  ZINC000182378855   -0.1900
     28 C28        -9.5931   -1.2059   54.2219 C.ar    1  ZINC000182378855    0.1400
     29 N29        -8.8528   -0.5013   53.3885 N.ar    1  ZINC000182378855   -0.5200
     30 H30        -5.9998    3.3998   49.4087 H       1  ZINC000182378855    0.0400
     31 H31        -7.6903    3.6910   48.9338 H       1  ZINC000182378855    0.0900
     32 H32        -6.8178    4.9008   49.9050 H       1  ZINC000182378855    0.0400
     33 H33        -5.5336    2.8772   51.7538 H       1  ZINC000182378855    0.0600
     34 H34        -6.3497    4.3797   52.2485 H       1  ZINC000182378855    0.0700
     35 H35        -6.3102    2.5469   54.0181 H       1  ZINC000182378855    0.0800
     36 H36        -7.9301    3.1638   53.6134 H       1  ZINC000182378855    0.0800
     37 H37        -7.8503    1.9835   55.3681 H       1  ZINC000182378855    0.1600
     38 H38        -9.9798   -0.9312   58.0810 H       1  ZINC000182378855    0.4000
     39 H39        -7.7483    0.1476   59.7443 H       1  ZINC000182378855    0.0900
     40 H40        -8.3327    1.4742   60.7975 H       1  ZINC000182378855    0.0900
     41 H41        -7.7808   -1.0782   61.7436 H       1  ZINC000182378855    0.1000
     42 H42        -8.9958   -0.0004   62.4946 H       1  ZINC000182378855    0.0700
     43 H43       -10.1834   -2.9581   59.3795 H       1  ZINC000182378855    0.1500
     44 H44       -11.6206   -4.2982   57.8963 H       1  ZINC000182378855    0.1500
     45 H45       -13.2217    0.0236   59.6381 H       1  ZINC000182378855    0.1500
     46 H46       -10.3759   -1.3876   56.2058 H       1  ZINC000182378855    0.1400
     47 H47       -10.0767   -2.1064   53.8729 H       1  ZINC000182378855    0.1700
@<TRIPOS>BOND
     1     1     2    1
     2     1    30    1
     3     1    31    1
     4     1    32    1
     5     2     3    1
     6     3     4    1
     7     3    33    1
     8     3    34    1
     9     4     5    1
    10     4    35    1
    11     4    36    1
    12     5     6    1
    13     6    29   ar
    14     6     7   ar
    15     7     8   ar
    16     7    37    1
    17     8     9    1
    18     8    27   ar
    19     9    10    2
    20     9    11   am
    21    11    12    1
    22    11    38    1
    23    12    13    1
    24    12    17    1
    25    12    14    1
    26    14    15    1
    27    14    39    1
    28    14    40    1
    29    15    16    1
    30    15    41    1
    31    15    42    1
    32    16    17    1
    33    17    18    1
    34    17    19    1
    35    19    26   ar
    36    19    20   ar
    37    20    21   ar
    38    20    43    1
    39    21    22   ar
    40    21    44    1
    41    22    23    1
    42    22    24   ar
    43    24    25    1
    44    24    26   ar
    45    26    45    1
    46    27    28   ar
    47    27    46    1
    48    28    29   ar
    49    28    47    1
@<TRIPOS>SUBSTRUCTURE
     1 ZINC000182378855        1 TEMP              0 ****  ****    0 ROOT


##########                                Name:    ZINC000948289723
##########                DOCK_Rotatable_Bonds:                   6
##########                         Heavy_Atoms:                  24
##########                    Molecular_Weight:             331.415
##########                DOCK_Rotatable_Bonds:                   6
##########                       Formal_Charge:           0.0599999
##########                     HBond_Acceptors:                   6
##########                        HBond_Donors:                   1
##########                         Heavy_Atoms:                  24
##########                          Grid_Score:          -30.001566
##########                     Grid_vdw_energy:          -29.827200
##########                      Grid_es_energy:           -0.174366
##########           Internal_energy_repulsive:            6.835237

@<TRIPOS>MOLECULE
ZINC000948289723
 49 52 1 0 0
SMALL
USER_CHARGES


@<TRIPOS>ATOM
      1 C1         -8.0447    3.4988   52.9460 C.3     1  ZINC000948289723   -0.1400
      2 C2         -7.6732    2.5101   54.0530 C.3     1  ZINC000948289723   -0.1100
      3 C3         -8.8244    2.2176   55.0296 C.3     1  ZINC000948289723   -0.1100
      4 C4         -8.3631    0.7507   55.0109 C.3     1  ZINC000948289723   -0.1400
      5 C5         -9.4992   -0.2391   54.9897 C.2     1  ZINC000948289723    0.5400
      6 O6         -9.8867   -0.6951   53.9347 O.2     1  ZINC000948289723   -0.5300
      7 N7        -10.0847   -0.6177   56.1431 N.am    1  ZINC000948289723   -0.6200
      8 C8        -11.1973   -1.5708   56.2667 C.3     1  ZINC000948289723    0.1100
      9 C9        -11.5136   -1.7133   57.7704 C.3     1  ZINC000948289723   -0.1100
     10 H10       -12.3347   -1.0558   58.0559 H       1  ZINC000948289723    0.1000
     11 C11       -11.8401   -3.1667   58.1196 C.3     1  ZINC000948289723   -0.1400
     12 C12       -10.1912   -1.2658   58.4476 C.3     1  ZINC000948289723    0.1400
     13 H13        -9.4722   -2.0843   58.4795 H       1  ZINC000948289723    0.1200
     14 N14       -10.4417   -0.7380   59.7911 N.am    1  ZINC000948289723   -0.7100
     15 C15        -9.5026   -0.8621   60.7498 C.2     1  ZINC000948289723    0.6100
     16 O16        -8.4470   -1.4109   60.4993 O.2     1  ZINC000948289723   -0.5000
     17 C17        -9.7555   -0.3322   62.1030 C.2     1  ZINC000948289723   -0.0900
     18 C18        -8.8959   -0.3507   63.1673 C.2     1  ZINC000948289723   -0.1400
     19 C19        -9.6258    0.2752   64.2022 C.2     1  ZINC000948289723    0.0500
     20 C20        -9.1554    0.5258   65.6119 C.3     1  ZINC000948289723   -0.0900
     21 C21        -7.6465    0.6223   65.8464 C.3     1  ZINC000948289723   -0.1600
     22 C22        -8.5128    1.8817   65.9116 C.3     1  ZINC000948289723   -0.1600
     23 N23       -10.7835    0.5933   63.7006 N.2     1  ZINC000948289723   -0.3300
     24 O24       -10.8767    0.2726   62.5387 O.3     1  ZINC000948289723    0.1200
     25 C25        -9.7113   -0.1495   57.4902 C.3     1  ZINC000948289723    0.0900
     26 C26        -7.7697    1.0373   53.6214 C.3     1  ZINC000948289723   -0.1200
     27 H27        -9.0720    3.3196   52.6285 H       1  ZINC000948289723    0.0600
     28 H28        -7.9534    4.5174   53.3230 H       1  ZINC000948289723    0.0600
     29 H29        -7.3735    3.3637   52.0979 H       1  ZINC000948289723    0.0600
     30 H30        -6.7335    2.7600   54.5458 H       1  ZINC000948289723    0.0900
     31 H31        -8.7069    2.6999   56.0001 H       1  ZINC000948289723    0.0700
     32 H32        -9.8133    2.3699   54.5971 H       1  ZINC000948289723    0.1000
     33 H33        -7.6138    0.5189   55.7678 H       1  ZINC000948289723    0.1100
     34 H34       -12.0716   -1.1905   55.7384 H       1  ZINC000948289723    0.0800
     35 H35       -10.9049   -2.5373   55.8562 H       1  ZINC000948289723    0.0800
     36 H36       -10.9957   -3.8026   57.8541 H       1  ZINC000948289723    0.0600
     37 H37       -12.0346   -3.2486   59.1890 H       1  ZINC000948289723    0.0600
     38 H38       -12.7227   -3.4843   57.5644 H       1  ZINC000948289723    0.0700
     39 H39       -11.2834   -0.2991   59.9905 H       1  ZINC000948289723    0.4100
     40 H40        -7.8935   -0.7507   63.2070 H       1  ZINC000948289723    0.1800
     41 H41        -9.7590    0.0704   66.3969 H       1  ZINC000948289723    0.1300
     42 H42        -7.2571    0.2301   66.7859 H       1  ZINC000948289723    0.1100
     43 H43        -6.9942    0.5044   64.9812 H       1  ZINC000948289723    0.1000
     44 H44        -8.4305    2.5923   65.0892 H       1  ZINC000948289723    0.1000
     45 H45        -8.6935    2.3180   66.8939 H       1  ZINC000948289723    0.1100
     46 H46        -8.6313   -0.0232   57.5659 H       1  ZINC000948289723    0.0900
     47 H47       -10.2204    0.7877   57.7149 H       1  ZINC000948289723    0.0800
     48 H48        -8.4702    0.8669   52.8038 H       1  ZINC000948289723    0.0900
     49 H49        -6.8008    0.5667   53.4549 H       1  ZINC000948289723    0.0800
@<TRIPOS>BOND
     1     1     2    1
     2     1    27    1
     3     1    28    1
     4     1    29    1
     5     2    26    1
     6     2     3    1
     7     2    30    1
     8     3     4    1
     9     3    31    1
    10     3    32    1
    11     4     5    1
    12     4    26    1
    13     4    33    1
    14     5     6    2
    15     5     7   am
    16     7    25    1
    17     7     8    1
    18     8     9    1
    19     8    34    1
    20     8    35    1
    21     9    10    1
    22     9    11    1
    23     9    12    1
    24    11    36    1
    25    11    37    1
    26    11    38    1
    27    12    13    1
    28    12    14    1
    29    12    25    1
    30    14    15   am
    31    14    39    1
    32    15    16    2
    33    15    17    1
    34    17    24    1
    35    17    18    2
    36    18    19    1
    37    18    40    1
    38    19    20    1
    39    19    23    2
    40    20    22    1
    41    20    21    1
    42    20    41    1
    43    21    22    1
    44    21    42    1
    45    21    43    1
    46    22    44    1
    47    22    45    1
    48    23    24    1
    49    25    46    1
    50    25    47    1
    51    26    48    1
    52    26    49    1
@<TRIPOS>SUBSTRUCTURE
     1 ZINC000948289723        1 TEMP              0 ****  ****    0 ROOT


##########                                Name:    ZINC000762187039
##########                DOCK_Rotatable_Bonds:                   9
##########                         Heavy_Atoms:                  25
##########                    Molecular_Weight:             354.473
##########                DOCK_Rotatable_Bonds:                   9
##########                       Formal_Charge:        -1.78814e-07
##########                     HBond_Acceptors:                   5
##########                        HBond_Donors:                   1
##########                         Heavy_Atoms:                  25
##########                          Grid_Score:          -29.990044
##########                     Grid_vdw_energy:          -30.783918
##########                      Grid_es_energy:            0.793876
##########           Internal_energy_repulsive:            7.270216

@<TRIPOS>MOLECULE
ZINC000762187039
 47 49 1 0 0
SMALL
USER_CHARGES


@<TRIPOS>ATOM
      1 C1        -13.5636    1.8820   64.0486 C.3     1  ZINC000762187039   -0.0800
      2 C2        -12.3916    1.9084   64.9957 C.2     1  ZINC000762187039    0.0500
      3 N3        -11.4457    1.0313   65.0248 N.2     1  ZINC000762187039   -0.4700
      4 C4        -10.4927    1.2048   65.9183 C.2     1  ZINC000762187039    0.0700
      5 C5         -9.3286    0.2589   66.0625 C.3     1  ZINC000762187039   -0.0300
      6 C6         -8.1638    0.7483   65.1997 C.3     1  ZINC000762187039   -0.1300
      7 C7         -8.1728    0.0170   63.8820 C.2     1  ZINC000762187039    0.5200
      8 O8         -7.1394   -0.4259   63.4273 O.2     1  ZINC000762187039   -0.5400
      9 N9         -9.3292   -0.1447   63.2089 N.am    1  ZINC000762187039   -0.7300
     10 C10        -9.3377   -0.8542   61.9272 C.3     1  ZINC000762187039    0.1200
     11 C11       -10.0123    0.0177   60.8662 C.3     1  ZINC000762187039   -0.1300
     12 C12        -8.9426    0.7316   60.0373 C.3     1  ZINC000762187039    0.0600
     13 O13        -9.5692    1.4757   58.9904 O.3     1  ZINC000762187039   -0.3100
     14 C14        -9.1629    1.2153   57.7202 C.ar    1  ZINC000762187039    0.1300
     15 C15        -7.9293    1.7013   57.2770 C.ar    1  ZINC000762187039   -0.1900
     16 C16        -7.4953    1.4571   56.0112 C.ar    1  ZINC000762187039   -0.0600
     17 C17        -8.2951    0.7057   55.1330 C.ar    1  ZINC000762187039   -0.0800
     18 C18        -7.8775    0.4344   53.8189 C.ar    1  ZINC000762187039   -0.0900
     19 C19        -8.6770   -0.2969   52.9954 C.ar    1  ZINC000762187039   -0.1300
     20 C20        -9.9072   -0.7829   53.4349 C.ar    1  ZINC000762187039   -0.1000
     21 C21       -10.3448   -0.5401   54.7004 C.ar    1  ZINC000762187039   -0.1200
     22 C22        -9.5464    0.2115   55.5802 C.ar    1  ZINC000762187039   -0.0100
     23 C23        -9.9629    0.4773   56.8946 C.ar    1  ZINC000762187039   -0.1500
     24 C24       -10.6431    2.2886   66.6856 C.2     1  ZINC000762187039   -0.2600
     25 S25       -12.1191    3.1088   66.1823 S.3     1  ZINC000762187039    0.1200
     26 H26       -14.2045    2.7428   64.2395 H       1  ZINC000762187039    0.0800
     27 H27       -13.2014    1.9196   63.0212 H       1  ZINC000762187039    0.0900
     28 H28       -14.1326    0.9647   64.2001 H       1  ZINC000762187039    0.0900
     29 H29        -9.0172    0.2224   67.1065 H       1  ZINC000762187039    0.0900
     30 H30        -9.6277   -0.7377   65.7376 H       1  ZINC000762187039    0.0900
     31 H31        -8.2679    1.8186   65.0219 H       1  ZINC000762187039    0.0900
     32 H32        -7.2233    0.5554   65.7157 H       1  ZINC000762187039    0.1000
     33 H33       -10.1559    0.2085   63.5733 H       1  ZINC000762187039    0.4000
     34 H34        -8.3129   -1.0682   61.6237 H       1  ZINC000762187039    0.0700
     35 H35        -9.8880   -1.7890   62.0329 H       1  ZINC000762187039    0.0700
     36 H36       -10.6195   -0.6093   60.2132 H       1  ZINC000762187039    0.0800
     37 H37       -10.6477    0.7570   61.3537 H       1  ZINC000762187039    0.0800
     38 H38        -8.3791    1.4097   60.6780 H       1  ZINC000762187039    0.0700
     39 H39        -8.2663   -0.0055   59.6045 H       1  ZINC000762187039    0.0700
     40 H40        -7.3121    2.2790   57.9492 H       1  ZINC000762187039    0.1300
     41 H41        -6.5403    1.8394   55.6822 H       1  ZINC000762187039    0.1300
     42 H42        -6.9269    0.8045   53.4642 H       1  ZINC000762187039    0.1300
     43 H43        -8.3534   -0.5036   51.9859 H       1  ZINC000762187039    0.1200
     44 H44       -10.5226   -1.3603   52.7608 H       1  ZINC000762187039    0.1200
     45 H45       -11.3003   -0.9230   55.0272 H       1  ZINC000762187039    0.1300
     46 H46       -10.9119    0.1036   57.2496 H       1  ZINC000762187039    0.1300
     47 H47        -9.9758    2.6074   67.4726 H       1  ZINC000762187039    0.1800
@<TRIPOS>BOND
     1     1     2    1
     2     1    26    1
     3     1    27    1
     4     1    28    1
     5     2    25    1
     6     2     3    2
     7     3     4    1
     8     4     5    1
     9     4    24    2
    10     5     6    1
    11     5    29    1
    12     5    30    1
    13     6     7    1
    14     6    31    1
    15     6    32    1
    16     7     8    2
    17     7     9   am
    18     9    10    1
    19     9    33    1
    20    10    11    1
    21    10    34    1
    22    10    35    1
    23    11    12    1
    24    11    36    1
    25    11    37    1
    26    12    13    1
    27    12    38    1
    28    12    39    1
    29    13    14    1
    30    14    23   ar
    31    14    15   ar
    32    15    16   ar
    33    15    40    1
    34    16    17   ar
    35    16    41    1
    36    17    22   ar
    37    17    18   ar
    38    18    19   ar
    39    18    42    1
    40    19    20   ar
    41    19    43    1
    42    20    21   ar
    43    20    44    1
    44    21    22   ar
    45    21    45    1
    46    22    23   ar
    47    23    46    1
    48    24    25    1
    49    24    47    1
@<TRIPOS>SUBSTRUCTURE
     1 ZINC000762187039        1 TEMP              0 ****  ****    0 ROOT


##########                                Name:    ZINC000774689801
##########                DOCK_Rotatable_Bonds:                   4
##########                         Heavy_Atoms:                  24
##########                    Molecular_Weight:             347.395
##########                DOCK_Rotatable_Bonds:                   4
##########                       Formal_Charge:         -0.00999961
##########                     HBond_Acceptors:                   8
##########                        HBond_Donors:                   1
##########                         Heavy_Atoms:                  24
##########                          Grid_Score:          -29.987284
##########                     Grid_vdw_energy:          -27.672213
##########                      Grid_es_energy:           -2.315071
##########           Internal_energy_repulsive:            9.477766

@<TRIPOS>MOLECULE
ZINC000774689801
 41 44 1 0 0
SMALL
USER_CHARGES


@<TRIPOS>ATOM
      1 C1        -11.2430   -1.1972   58.5288 C.3     1  ZINC000774689801   -0.1200
      2 C2        -10.1391   -0.1969   58.3008 C.2     1  ZINC000774689801    0.0600
      3 C3         -9.6018    0.5179   59.3024 C.2     1  ZINC000774689801   -0.2800
      4 C4        -10.0057    0.4218   60.7067 C.2     1  ZINC000774689801    0.5500
      5 O5        -10.8836    1.1449   61.1378 O.2     1  ZINC000774689801   -0.4900
      6 O6         -9.4042   -0.4687   61.5222 O.3     1  ZINC000774689801   -0.3400
      7 C7         -9.7468   -0.4077   62.9319 C.3     1  ZINC000774689801    0.0900
      8 C8         -8.7840    0.5399   63.6501 C.3     1  ZINC000774689801   -0.1300
      9 H9         -7.7601    0.3641   63.3203 H       1  ZINC000774689801    0.1200
     10 C10        -9.1873    2.0118   63.4017 C.3     1  ZINC000774689801   -0.1300
     11 C11        -8.8596    2.6625   64.7639 C.3     1  ZINC000774689801    0.1000
     12 N12        -8.9422    1.5758   65.7469 N.am    1  ZINC000774689801   -0.7400
     13 C13        -8.8939    0.3700   65.1494 C.2     1  ZINC000774689801    0.5200
     14 O14        -8.9362   -0.6946   65.7288 O.2     1  ZINC000774689801   -0.5100
     15 S15        -8.3468    1.5833   58.6929 S.3     1  ZINC000774689801    0.3000
     16 C16        -8.5939    1.0125   57.0469 C.2     1  ZINC000774689801    0.1000
     17 C17        -9.6035    0.0443   57.0371 C.2     1  ZINC000774689801   -0.2500
     18 C18        -9.9458   -0.5492   55.7305 C.2     1  ZINC000774689801    0.5700
     19 O19       -10.8152   -1.3977   55.6415 O.2     1  ZINC000774689801   -0.5000
     20 N20        -9.2736   -0.1307   54.6325 N.am    1  ZINC000774689801   -0.5500
     21 C21        -9.4264   -0.5690   53.2345 C.3     1  ZINC000774689801    0.0900
     22 C22        -8.7524    0.5248   52.3807 C.3     1  ZINC000774689801   -0.1300
     23 C23        -7.7210    1.1074   53.3709 C.3     1  ZINC000774689801   -0.0800
     24 C24        -8.3092    0.8179   54.7419 C.2     1  ZINC000774689801    0.4200
     25 N25        -7.9919    1.3484   55.8930 N.2     1  ZINC000774689801   -0.5100
     26 H26       -10.8095   -2.1748   58.7397 H       1  ZINC000774689801    0.0800
     27 H27       -11.8520   -0.8796   59.3751 H       1  ZINC000774689801    0.1000
     28 H28       -11.8657   -1.2608   57.6365 H       1  ZINC000774689801    0.0800
     29 H29       -10.7673   -0.0411   63.0422 H       1  ZINC000774689801    0.0900
     30 H30        -9.6694   -1.4036   63.3681 H       1  ZINC000774689801    0.0800
     31 H31        -8.5873    2.4516   62.6050 H       1  ZINC000774689801    0.1000
     32 H32       -10.2508    2.0923   63.1768 H       1  ZINC000774689801    0.0900
     33 H33        -7.8537    3.0822   64.7492 H       1  ZINC000774689801    0.0800
     34 H34        -9.5893    3.4380   64.9968 H       1  ZINC000774689801    0.0800
     35 H35        -9.0199    1.7088   66.7046 H       1  ZINC000774689801    0.4100
     36 H36        -8.9274   -1.5262   53.0831 H       1  ZINC000774689801    0.1000
     37 H37       -10.4828   -0.6494   52.9782 H       1  ZINC000774689801    0.1000
     38 H38        -8.2570    0.0912   51.5119 H       1  ZINC000774689801    0.1100
     39 H39        -9.4743    1.2833   52.0782 H       1  ZINC000774689801    0.0900
     40 H40        -6.7587    0.6085   53.2562 H       1  ZINC000774689801    0.1200
     41 H41        -7.6142    2.1819   53.2214 H       1  ZINC000774689801    0.1200
@<TRIPOS>BOND
     1     1     2    1
     2     1    26    1
     3     1    27    1
     4     1    28    1
     5     2    17    1
     6     2     3    2
     7     3     4    1
     8     3    15    1
     9     4     5    2
    10     4     6    1
    11     6     7    1
    12     7     8    1
    13     7    29    1
    14     7    30    1
    15     8     9    1
    16     8    13    1
    17     8    10    1
    18    10    11    1
    19    10    31    1
    20    10    32    1
    21    11    12    1
    22    11    33    1
    23    11    34    1
    24    12    13   am
    25    12    35    1
    26    13    14    2
    27    15    16    1
    28    16    25    1
    29    16    17    2
    30    17    18    1
    31    18    19    2
    32    18    20   am
    33    20    24    1
    34    20    21    1
    35    21    22    1
    36    21    36    1
    37    21    37    1
    38    22    23    1
    39    22    38    1
    40    22    39    1
    41    23    24    1
    42    23    40    1
    43    23    41    1
    44    24    25    2
@<TRIPOS>SUBSTRUCTURE
     1 ZINC000774689801        1 TEMP              0 ****  ****    0 ROOT


##########                                Name:    ZINC001492779707
##########                DOCK_Rotatable_Bonds:                   8
##########                         Heavy_Atoms:                  27
##########                    Molecular_Weight:             374.483
##########                DOCK_Rotatable_Bonds:                   8
##########                       Formal_Charge:           0.0199998
##########                     HBond_Acceptors:                   7
##########                        HBond_Donors:                   0
##########                         Heavy_Atoms:                  27
##########                          Grid_Score:          -29.984301
##########                     Grid_vdw_energy:          -30.257145
##########                      Grid_es_energy:            0.272844
##########           Internal_energy_repulsive:            7.270077

@<TRIPOS>MOLECULE
ZINC001492779707
 57 59 1 0 0
SMALL
USER_CHARGES


@<TRIPOS>ATOM
      1 C1        -14.1674   -2.7091   60.9555 C.3     1  ZINC001492779707   -0.0700
      2 C2        -13.6177   -2.3190   59.6077 C.2     1  ZINC001492779707    0.1800
      3 N3        -14.2938   -2.2144   58.4988 N.2     1  ZINC001492779707   -0.2900
      4 N4        -13.5146   -1.8622   57.5391 N.2     1  ZINC001492779707   -0.3100
      5 C5        -12.2896   -1.7219   57.9882 C.2     1  ZINC001492779707    0.3400
      6 N6        -11.1781   -1.3522   57.2477 N.3     1  ZINC001492779707   -0.4600
      7 C7        -10.8057   -2.4065   56.2949 C.3     1  ZINC001492779707    0.0300
      8 C8        -11.4061   -0.0756   56.5576 C.3     1  ZINC001492779707    0.1100
      9 C9        -10.2349    0.8417   56.7983 C.ar    1  ZINC001492779707   -0.0400
     10 C10       -10.1943    1.6261   57.9360 C.ar    1  ZINC001492779707   -0.1300
     11 C11        -9.1210    2.4688   58.1597 C.ar    1  ZINC001492779707   -0.0800
     12 C12        -8.0866    2.5289   57.2465 C.ar    1  ZINC001492779707   -0.2100
     13 C13        -8.1250    1.7427   56.1038 C.ar    1  ZINC001492779707    0.1300
     14 O14        -7.1081    1.7997   55.2039 O.3     1  ZINC001492779707   -0.3100
     15 C15        -7.2338    2.7478   54.1421 C.3     1  ZINC001492779707    0.0800
     16 C16        -6.1209    3.7915   54.2561 C.3     1  ZINC001492779707   -0.1500
     17 C17        -7.1206    2.0261   52.7979 C.3     1  ZINC001492779707   -0.1800
     18 C18        -9.1999    0.8940   55.8844 C.ar    1  ZINC001492779707   -0.1400
     19 N19       -12.3180   -2.0032   59.3230 N.pl3   1  ZINC001492779707   -0.4600
     20 C20       -11.1886   -1.9810   60.2559 C.3     1  ZINC001492779707    0.1200
     21 C21       -11.2708   -0.7256   61.1266 C.3     1  ZINC001492779707   -0.1200
     22 C22       -10.1656   -0.7650   62.1838 C.3     1  ZINC001492779707    0.0600
     23 H23       -10.0513   -1.7839   62.5536 H       1  ZINC001492779707    0.0800
     24 C24        -8.8468   -0.2946   61.5633 C.3     1  ZINC001492779707    0.0300
     25 O25        -7.8457   -0.2276   62.5833 O.3     1  ZINC001492779707   -0.3800
     26 C26        -8.1901    0.6401   63.6675 C.3     1  ZINC001492779707    0.0200
     27 C27        -9.5087    0.1698   64.2880 C.3     1  ZINC001492779707    0.0300
     28 O28       -10.5106    0.1017   63.2687 O.3     1  ZINC001492779707   -0.3800
     29 H29       -14.4947   -1.8155   61.4870 H       1  ZINC001492779707    0.0900
     30 H30       -15.0139   -3.3827   60.8215 H       1  ZINC001492779707    0.1000
     31 H31       -13.3913   -3.2115   61.5329 H       1  ZINC001492779707    0.0800
     32 H32       -11.5903   -2.5126   55.5456 H       1  ZINC001492779707    0.0500
     33 H33        -9.8693   -2.1395   55.8051 H       1  ZINC001492779707    0.0900
     34 H34       -10.6815   -3.3497   56.8269 H       1  ZINC001492779707    0.0700
     35 H35       -11.5134   -0.2549   55.4878 H       1  ZINC001492779707    0.0700
     36 H36       -12.3152    0.3875   56.9413 H       1  ZINC001492779707    0.0900
     37 H37       -11.0024    1.5808   58.6511 H       1  ZINC001492779707    0.1200
     38 H38        -9.0918    3.0808   59.0491 H       1  ZINC001492779707    0.1300
     39 H39        -7.2487    3.1875   57.4214 H       1  ZINC001492779707    0.1300
     40 H40        -8.2032    3.2416   54.2089 H       1  ZINC001492779707    0.0700
     41 H41        -5.1514    3.2977   54.1893 H       1  ZINC001492779707    0.0700
     42 H42        -6.2167    4.5147   53.4462 H       1  ZINC001492779707    0.0800
     43 H43        -6.2015    4.3056   55.2138 H       1  ZINC001492779707    0.0700
     44 H44        -7.9134    1.2825   52.7167 H       1  ZINC001492779707    0.0600
     45 H45        -7.2165    2.7494   51.9880 H       1  ZINC001492779707    0.0700
     46 H46        -6.1512    1.5322   52.7311 H       1  ZINC001492779707    0.0700
     47 H47        -9.2321    0.2811   54.9958 H       1  ZINC001492779707    0.1300
     48 H48       -11.2242   -2.8664   60.8906 H       1  ZINC001492779707    0.1000
     49 H49       -10.2542   -1.9735   59.6948 H       1  ZINC001492779707    0.1000
     50 H50       -11.1448    0.1587   60.5019 H       1  ZINC001492779707    0.0900
     51 H51       -12.2428   -0.6875   61.6183 H       1  ZINC001492779707    0.0800
     52 H52        -8.5351   -0.9996   60.7926 H       1  ZINC001492779707    0.1100
     53 H53        -8.9836    0.6925   61.1217 H       1  ZINC001492779707    0.0600
     54 H54        -7.4026    0.6120   64.4207 H       1  ZINC001492779707    0.1100
     55 H55        -8.3047    1.6585   63.2967 H       1  ZINC001492779707    0.0600
     56 H56        -9.3720   -0.8174   64.7296 H       1  ZINC001492779707    0.0600
     57 H57        -9.8205    0.8747   65.0587 H       1  ZINC001492779707    0.1100
@<TRIPOS>BOND
     1     1     2    1
     2     1    29    1
     3     1    30    1
     4     1    31    1
     5     2    19    1
     6     2     3    2
     7     3     4    1
     8     4     5    2
     9     5     6    1
    10     5    19    1
    11     6     7    1
    12     6     8    1
    13     7    32    1
    14     7    33    1
    15     7    34    1
    16     8     9    1
    17     8    35    1
    18     8    36    1
    19     9    18   ar
    20     9    10   ar
    21    10    11   ar
    22    10    37    1
    23    11    12   ar
    24    11    38    1
    25    12    13   ar
    26    12    39    1
    27    13    14    1
    28    13    18   ar
    29    14    15    1
    30    15    16    1
    31    15    17    1
    32    15    40    1
    33    16    41    1
    34    16    42    1
    35    16    43    1
    36    17    44    1
    37    17    45    1
    38    17    46    1
    39    18    47    1
    40    19    20    1
    41    20    21    1
    42    20    48    1
    43    20    49    1
    44    21    22    1
    45    21    50    1
    46    21    51    1
    47    22    23    1
    48    22    28    1
    49    22    24    1
    50    24    25    1
    51    24    52    1
    52    24    53    1
    53    25    26    1
    54    26    27    1
    55    26    54    1
    56    26    55    1
    57    27    28    1
    58    27    56    1
    59    27    57    1
@<TRIPOS>SUBSTRUCTURE
     1 ZINC001492779707        1 TEMP              0 ****  ****    0 ROOT


##########                                Name:    ZINC000550011575
##########                DOCK_Rotatable_Bonds:                   6
##########                         Heavy_Atoms:                  28
##########                    Molecular_Weight:             423.935
##########                DOCK_Rotatable_Bonds:                   6
##########                       Formal_Charge:          -0.0100002
##########                     HBond_Acceptors:                   7
##########                        HBond_Donors:                   0
##########                         Heavy_Atoms:                  28
##########                          Grid_Score:          -29.978460
##########                     Grid_vdw_energy:          -29.625441
##########                      Grid_es_energy:           -0.353019
##########           Internal_energy_repulsive:           37.363731

@<TRIPOS>MOLECULE
ZINC000550011575
 51 53 1 0 0
SMALL
USER_CHARGES


@<TRIPOS>ATOM
      1 C1         -9.0846   -0.5923   52.5983 C.3     1  ZINC000550011575   -0.1400
      2 C2         -9.3614    0.4802   53.6538 C.3     1  ZINC000550011575   -0.6100
      3 H3        -10.0585    1.2150   53.2510 H       1  ZINC000550011575    0.1500
      4 C4         -9.9608   -0.1625   54.8780 C.2     1  ZINC000550011575    0.5400
      5 O5         -9.6011   -1.2693   55.2195 O.2     1  ZINC000550011575   -0.5100
      6 N6        -10.8967    0.4925   55.5932 N.am    1  ZINC000550011575   -0.6000
      7 C7        -11.3324    1.8286   55.1796 C.3     1  ZINC000550011575    0.0600
      8 C8        -11.4780   -0.1316   56.7842 C.3     1  ZINC000550011575    0.1500
      9 C9        -10.4478   -0.1734   57.8833 C.ar    1  ZINC000550011575   -0.1500
     10 C10        -9.7875    0.9840   58.2579 C.ar    1  ZINC000550011575    0.1400
     11 F11       -10.0662    2.1518   57.6383 F       1  ZINC000550011575   -0.1100
     12 C12        -8.8414    0.9443   59.2684 C.ar    1  ZINC000550011575   -0.1500
     13 C13        -8.5570   -0.2502   59.9021 C.ar    1  ZINC000550011575   -0.0700
     14 C14        -9.2165   -1.4062   59.5280 C.ar    1  ZINC000550011575   -0.1300
     15 C15       -10.1656   -1.3674   58.5224 C.ar    1  ZINC000550011575    0.0000
     16 Cl16      -10.9937   -2.8195   58.0538 Cl      1  ZINC000550011575   -0.0500
     17 S17        -7.8079    1.3028   54.1019 S.o2    1  ZINC000550011575    2.4500
     18 O18        -7.8891    1.7151   55.4594 O.2     1  ZINC000550011575   -0.9200
     19 O19        -6.7249    0.4801   53.6903 O.2     1  ZINC000550011575   -0.9100
     20 C20        -7.8468    2.7776   53.0466 C.3     1  ZINC000550011575   -0.5300
     21 H21        -8.5399    3.5045   53.4702 H       1  ZINC000550011575    0.1500
     22 C22        -8.3213    2.3846   51.6491 C.3     1  ZINC000550011575   -0.1100
     23 C23        -8.1414    3.5905   50.7196 C.3     1  ZINC000550011575   -0.1100
     24 C24        -6.6460    3.8118   50.5011 C.3     1  ZINC000550011575   -0.0900
     25 C25        -5.9205    3.8654   51.8201 C.ar    1  ZINC000550011575   -0.0600
     26 C26        -4.6506    4.4269   51.8372 C.ar    1  ZINC000550011575   -0.1200
     27 C27        -3.9322    4.5003   53.0129 C.ar    1  ZINC000550011575   -0.1100
     28 C28        -4.4799    4.0103   54.1836 C.ar    1  ZINC000550011575   -0.1100
     29 C29        -5.7426    3.4541   54.1691 C.ar    1  ZINC000550011575   -0.1500
     30 C30        -6.4685    3.3822   52.9868 C.ar    1  ZINC000550011575   -0.0800
     31 H31        -8.8067   -0.1143   51.6589 H       1  ZINC000550011575    0.0900
     32 H32        -8.2690   -1.2320   52.9356 H       1  ZINC000550011575    0.0900
     33 H33        -9.9806   -1.1945   52.4485 H       1  ZINC000550011575    0.0800
     34 H34       -12.1777    1.7400   54.4971 H       1  ZINC000550011575    0.0700
     35 H35       -11.6327    2.4007   56.0574 H       1  ZINC000550011575    0.0800
     36 H36       -10.5112    2.3391   54.6766 H       1  ZINC000550011575    0.0700
     37 H37       -12.3390    0.4492   57.1152 H       1  ZINC000550011575    0.1000
     38 H38       -11.7951   -1.1466   56.5446 H       1  ZINC000550011575    0.1100
     39 H39        -8.3256    1.8470   59.5609 H       1  ZINC000550011575    0.1500
     40 H40        -7.8188   -0.2808   60.6899 H       1  ZINC000550011575    0.1500
     41 H41        -8.9932   -2.3394   60.0238 H       1  ZINC000550011575    0.1400
     42 H42        -7.7282    1.5468   51.2822 H       1  ZINC000550011575    0.0800
     43 H43        -9.3735    2.1023   51.6846 H       1  ZINC000550011575    0.0900
     44 H44        -8.6267    3.3930   49.7638 H       1  ZINC000550011575    0.0800
     45 H45        -8.5803    4.4765   51.1786 H       1  ZINC000550011575    0.0700
     46 H46        -6.2451    2.9933   49.9034 H       1  ZINC000550011575    0.0800
     47 H47        -6.4956    4.7515   49.9697 H       1  ZINC000550011575    0.0800
     48 H48        -4.2217    4.8091   50.9227 H       1  ZINC000550011575    0.1300
     49 H49        -2.9452    4.9387   53.0184 H       1  ZINC000550011575    0.1300
     50 H50        -3.9213    4.0623   55.1065 H       1  ZINC000550011575    0.1300
     51 H51        -6.1695    3.0710   55.0841 H       1  ZINC000550011575    0.1700
@<TRIPOS>BOND
     1     1     2    1
     2     1    31    1
     3     1    32    1
     4     1    33    1
     5     2     3    1
     6     2     4    1
     7     2    17    1
     8     4     5    2
     9     4     6   am
    10     6     7    1
    11     6     8    1
    12     7    34    1
    13     7    35    1
    14     7    36    1
    15     8     9    1
    16     8    37    1
    17     8    38    1
    18     9    15   ar
    19     9    10   ar
    20    10    11    1
    21    10    12   ar
    22    12    13   ar
    23    12    39    1
    24    13    14   ar
    25    13    40    1
    26    14    15   ar
    27    14    41    1
    28    15    16    1
    29    17    18    2
    30    17    19    2
    31    17    20    1
    32    20    21    1
    33    20    30    1
    34    20    22    1
    35    22    23    1
    36    22    42    1
    37    22    43    1
    38    23    24    1
    39    23    44    1
    40    23    45    1
    41    24    25    1
    42    24    46    1
    43    24    47    1
    44    25    30   ar
    45    25    26   ar
    46    26    27   ar
    47    26    48    1
    48    27    28   ar
    49    27    49    1
    50    28    29   ar
    51    28    50    1
    52    29    30   ar
    53    29    51    1
@<TRIPOS>SUBSTRUCTURE
     1 ZINC000550011575        1 TEMP              0 ****  ****    0 ROOT


##########                                Name:    ZINC000279331220
##########                DOCK_Rotatable_Bonds:                   9
##########                         Heavy_Atoms:                  24
##########                    Molecular_Weight:             328.411
##########                DOCK_Rotatable_Bonds:                   9
##########                       Formal_Charge:          -0.0100001
##########                     HBond_Acceptors:                   5
##########                        HBond_Donors:                   0
##########                         Heavy_Atoms:                  24
##########                          Grid_Score:          -29.970833
##########                     Grid_vdw_energy:          -31.025513
##########                      Grid_es_energy:            1.054680
##########           Internal_energy_repulsive:           16.035896

@<TRIPOS>MOLECULE
ZINC000279331220
 48 49 1 0 0
SMALL
USER_CHARGES


@<TRIPOS>ATOM
      1 C1        -11.5705    0.3920   55.9901 C.3     1  ZINC000279331220   -0.1500
      2 C2        -11.2169   -1.0907   55.8580 C.3     1  ZINC000279331220    0.0500
      3 O3         -9.7961   -1.2408   55.8304 O.3     1  ZINC000279331220   -0.3000
      4 C4         -9.1224   -0.5647   54.8617 C.ar    1  ZINC000279331220    0.1000
      5 C5         -9.3006   -0.9000   53.5294 C.ar    1  ZINC000279331220   -0.1700
      6 C6         -8.6152   -0.2113   52.5455 C.ar    1  ZINC000279331220   -0.1200
      7 C7         -7.7514    0.8119   52.8879 C.ar    1  ZINC000279331220   -0.1200
      8 C8         -7.5686    1.1513   54.2160 C.ar    1  ZINC000279331220   -0.1700
      9 C9         -8.2569    0.4695   55.2061 C.ar    1  ZINC000279331220    0.1000
     10 O10        -8.0782    0.8020   56.5126 O.3     1  ZINC000279331220   -0.3000
     11 C11        -8.4815    2.1143   56.9091 C.3     1  ZINC000279331220    0.0600
     12 C12        -8.3836    2.2401   58.4307 C.3     1  ZINC000279331220   -0.1100
     13 C13        -8.8971    0.9550   59.0829 C.3     1  ZINC000279331220   -0.1300
     14 C14        -8.8301    1.0910   60.5822 C.2     1  ZINC000279331220    0.5200
     15 O15        -8.6925    2.1854   61.0862 O.2     1  ZINC000279331220   -0.5200
     16 N16        -8.9231   -0.0036   61.3630 N.am    1  ZINC000279331220   -0.5700
     17 C17        -9.0875   -1.3259   60.7541 C.3     1  ZINC000279331220    0.0800
     18 C18        -8.8628    0.1225   62.7501 C.ar    1  ZINC000279331220    0.3400
     19 N19        -7.7056   -0.0337   63.3730 N.ar    1  ZINC000279331220   -0.4800
     20 C20        -7.6048    0.0771   64.6838 C.ar    1  ZINC000279331220    0.1100
     21 C21        -8.7122    0.3623   65.4575 C.ar    1  ZINC000279331220   -0.1600
     22 C22        -9.9452    0.5335   64.8425 C.ar    1  ZINC000279331220   -0.0700
     23 C23       -10.0180    0.4167   63.4657 C.ar    1  ZINC000279331220   -0.1200
     24 C24       -11.3337    0.5945   62.7527 C.3     1  ZINC000279331220   -0.1100
     25 H25       -12.6543    0.5066   56.0112 H       1  ZINC000279331220    0.0800
     26 H26       -11.1455    0.7860   56.9133 H       1  ZINC000279331220    0.0700
     27 H27       -11.1637    0.9397   55.1400 H       1  ZINC000279331220    0.0700
     28 H28       -11.6237   -1.6384   56.7081 H       1  ZINC000279331220    0.0600
     29 H29       -11.6419   -1.4848   54.9348 H       1  ZINC000279331220    0.0600
     30 H30        -9.9745   -1.6995   53.2592 H       1  ZINC000279331220    0.1300
     31 H31        -8.7550   -0.4736   51.5072 H       1  ZINC000279331220    0.1300
     32 H32        -7.2176    1.3472   52.1165 H       1  ZINC000279331220    0.1300
     33 H33        -6.8925    1.9508   54.4808 H       1  ZINC000279331220    0.1300
     34 H34        -7.8296    2.8518   56.4408 H       1  ZINC000279331220    0.0600
     35 H35        -9.5109    2.2883   56.5956 H       1  ZINC000279331220    0.0600
     36 H36        -7.3441    2.4020   58.7158 H       1  ZINC000279331220    0.0800
     37 H37        -8.9876    3.0837   58.7651 H       1  ZINC000279331220    0.0800
     38 H38        -9.9295    0.7810   58.7795 H       1  ZINC000279331220    0.1000
     39 H39        -8.2789    0.1148   58.7663 H       1  ZINC000279331220    0.1000
     40 H40        -8.1101   -1.7253   60.4835 H       1  ZINC000279331220    0.0700
     41 H41        -9.5696   -1.9962   61.4657 H       1  ZINC000279331220    0.0800
     42 H42        -9.7051   -1.2399   59.8601 H       1  ZINC000279331220    0.0800
     43 H43        -6.6437   -0.0573   65.1577 H       1  ZINC000279331220    0.1600
     44 H44        -8.6204    0.4509   66.5299 H       1  ZINC000279331220    0.1400
     45 H45       -10.8266    0.7572   65.4252 H       1  ZINC000279331220    0.1400
     46 H46       -11.4230    1.6242   62.4062 H       1  ZINC000279331220    0.0800
     47 H47       -11.3784   -0.0814   61.8988 H       1  ZINC000279331220    0.0700
     48 H48       -12.1514    0.3695   63.4375 H       1  ZINC000279331220    0.0700
@<TRIPOS>BOND
     1     1     2    1
     2     1    25    1
     3     1    26    1
     4     1    27    1
     5     2     3    1
     6     2    28    1
     7     2    29    1
     8     3     4    1
     9     4     9   ar
    10     4     5   ar
    11     5     6   ar
    12     5    30    1
    13     6     7   ar
    14     6    31    1
    15     7     8   ar
    16     7    32    1
    17     8     9   ar
    18     8    33    1
    19     9    10    1
    20    10    11    1
    21    11    12    1
    22    11    34    1
    23    11    35    1
    24    12    13    1
    25    12    36    1
    26    12    37    1
    27    13    14    1
    28    13    38    1
    29    13    39    1
    30    14    15    2
    31    14    16   am
    32    16    17    1
    33    16    18    1
    34    17    40    1
    35    17    41    1
    36    17    42    1
    37    18    23   ar
    38    18    19   ar
    39    19    20   ar
    40    20    21   ar
    41    20    43    1
    42    21    22   ar
    43    21    44    1
    44    22    23   ar
    45    22    45    1
    46    23    24    1
    47    24    46    1
    48    24    47    1
    49    24    48    1
@<TRIPOS>SUBSTRUCTURE
     1 ZINC000279331220        1 TEMP              0 ****  ****    0 ROOT


##########                                Name:    ZINC001087843226
##########                DOCK_Rotatable_Bonds:                   6
##########                         Heavy_Atoms:                  27
##########                    Molecular_Weight:             368.479
##########                DOCK_Rotatable_Bonds:                   6
##########                       Formal_Charge:        -4.47035e-07
##########                     HBond_Acceptors:                   6
##########                        HBond_Donors:                   1
##########                         Heavy_Atoms:                  27
##########                          Grid_Score:          -29.955990
##########                     Grid_vdw_energy:          -29.692791
##########                      Grid_es_energy:           -0.263198
##########           Internal_energy_repulsive:           28.383656

@<TRIPOS>MOLECULE
ZINC001087843226
 55 58 1 0 0
SMALL
USER_CHARGES


@<TRIPOS>ATOM
      1 C1         -9.6370    4.1548   60.1700 C.3     1  ZINC001087843226   -0.1500
      2 C2         -9.5735    3.2467   61.3996 C.3     1  ZINC001087843226   -0.1500
      3 C3         -8.7198    2.0173   61.0822 C.3     1  ZINC001087843226    0.0700
      4 H4         -7.7242    2.3289   60.7663 H       1  ZINC001087843226    0.1000
      5 C5         -9.3889    1.1875   59.9662 C.3     1  ZINC001087843226    0.1300
      6 H6        -10.4598    1.3866   59.9273 H       1  ZINC001087843226    0.1000
      7 N7         -8.7650    1.4645   58.6699 N.am    1  ZINC001087843226   -0.7200
      8 C8         -9.4881    1.3581   57.5376 C.2     1  ZINC001087843226    0.5600
      9 O9        -10.6575    1.0309   57.5917 O.2     1  ZINC001087843226   -0.5300
     10 C10        -8.8590    1.6393   56.2295 C.ar    1  ZINC001087843226   -0.1400
     11 C11        -8.0850    2.7868   56.0595 C.ar    1  ZINC001087843226   -0.0800
     12 C12        -7.5005    3.0437   54.8364 C.ar    1  ZINC001087843226   -0.1300
     13 C13        -7.6816    2.1664   53.7838 C.ar    1  ZINC001087843226   -0.0400
     14 C14        -7.0392    2.4549   52.4514 C.3     1  ZINC001087843226   -0.1200
     15 C15        -8.4492    1.0229   53.9440 C.ar    1  ZINC001087843226   -0.1100
     16 C16        -9.0347    0.7523   55.1632 C.ar    1  ZINC001087843226   -0.0300
     17 C17        -9.8151   -0.5420   55.0821 C.3     1  ZINC001087843226   -0.0800
     18 C18       -10.0035   -0.8057   53.5730 C.3     1  ZINC001087843226   -0.1200
     19 C19        -8.7899   -0.0740   52.9575 C.3     1  ZINC001087843226   -0.0800
     20 C20        -9.1184   -0.2749   60.4082 C.3     1  ZINC001087843226   -0.1400
     21 C21        -9.2233   -0.1604   61.9494 C.3     1  ZINC001087843226    0.0400
     22 N22        -8.6209    1.1541   62.2734 N.3     1  ZINC001087843226   -0.5100
     23 C23        -9.2904    1.7701   63.4268 C.3     1  ZINC001087843226    0.1100
     24 C24        -9.1449    0.8740   64.6297 C.2     1  ZINC001087843226    0.0800
     25 N25        -8.1734    0.0337   64.8271 N.2     1  ZINC001087843226   -0.2700
     26 O26        -8.4125   -0.6074   66.0700 O.3     1  ZINC001087843226    0.0300
     27 N27        -9.6184   -0.0588   66.5779 N.2     1  ZINC001087843226   -0.2800
     28 C28       -10.0378    0.8209   65.7183 C.2     1  ZINC001087843226    0.0900
     29 C29       -11.2898    1.6477   65.8589 C.3     1  ZINC001087843226   -0.0900
     30 H30       -10.3005    4.9955   60.3731 H       1  ZINC001087843226    0.0600
     31 H31        -8.6384    4.5271   59.9413 H       1  ZINC001087843226    0.0600
     32 H32       -10.0174    3.5890   59.3195 H       1  ZINC001087843226    0.0600
     33 H33        -9.1292    3.7925   62.2320 H       1  ZINC001087843226    0.0800
     34 H34       -10.5809    2.9296   61.6695 H       1  ZINC001087843226    0.0700
     35 H35        -7.8315    1.7244   58.6267 H       1  ZINC001087843226    0.4000
     36 H36        -7.9439    3.4722   56.8821 H       1  ZINC001087843226    0.1300
     37 H37        -6.9009    3.9317   54.7012 H       1  ZINC001087843226    0.1300
     38 H38        -6.0477    2.0032   52.4207 H       1  ZINC001087843226    0.0800
     39 H39        -7.6537    2.0373   51.6538 H       1  ZINC001087843226    0.0700
     40 H40        -6.9516    3.5329   52.3160 H       1  ZINC001087843226    0.0700
     41 H41        -9.2500   -1.3538   55.5403 H       1  ZINC001087843226    0.0800
     42 H42       -10.7832   -0.4312   55.5706 H       1  ZINC001087843226    0.0900
     43 H43        -9.9598   -1.8733   53.3577 H       1  ZINC001087843226    0.0800
     44 H44       -10.9402   -0.3757   53.2184 H       1  ZINC001087843226    0.0700
     45 H45        -9.0581    0.3589   51.9938 H       1  ZINC001087843226    0.0800
     46 H46        -7.9515   -0.7612   52.8442 H       1  ZINC001087843226    0.0800
     47 H47        -9.8790   -0.9489   60.0140 H       1  ZINC001087843226    0.0800
     48 H48        -8.1210   -0.5955   60.1074 H       1  ZINC001087843226    0.0800
     49 H49       -10.2673   -0.1882   62.2618 H       1  ZINC001087843226    0.0600
     50 H50        -8.6614   -0.9622   62.4285 H       1  ZINC001087843226    0.0800
     51 H51        -8.8347    2.7376   63.6374 H       1  ZINC001087843226    0.1200
     52 H52       -10.3481    1.9078   63.2021 H       1  ZINC001087843226    0.0700
     53 H53       -11.0392    2.6158   66.2927 H       1  ZINC001087843226    0.1000
     54 H54       -11.7399    1.7952   64.8771 H       1  ZINC001087843226    0.0900
     55 H55       -11.9959    1.1304   66.5084 H       1  ZINC001087843226    0.0900
@<TRIPOS>BOND
     1     1     2    1
     2     1    30    1
     3     1    31    1
     4     1    32    1
     5     2     3    1
     6     2    33    1
     7     2    34    1
     8     3     4    1
     9     3    22    1
    10     3     5    1
    11     5     6    1
    12     5     7    1
    13     5    20    1
    14     7     8   am
    15     7    35    1
    16     8     9    2
    17     8    10    1
    18    10    16   ar
    19    10    11   ar
    20    11    12   ar
    21    11    36    1
    22    12    13   ar
    23    12    37    1
    24    13    14    1
    25    13    15   ar
    26    14    38    1
    27    14    39    1
    28    14    40    1
    29    15    19    1
    30    15    16   ar
    31    16    17    1
    32    17    18    1
    33    17    41    1
    34    17    42    1
    35    18    19    1
    36    18    43    1
    37    18    44    1
    38    19    45    1
    39    19    46    1
    40    20    21    1
    41    20    47    1
    42    20    48    1
    43    21    22    1
    44    21    49    1
    45    21    50    1
    46    22    23    1
    47    23    24    1
    48    23    51    1
    49    23    52    1
    50    24    28    1
    51    24    25    2
    52    25    26    1
    53    26    27    1
    54    27    28    2
    55    28    29    1
    56    29    53    1
    57    29    54    1
    58    29    55    1
@<TRIPOS>SUBSTRUCTURE
     1 ZINC001087843226        1 TEMP              0 ****  ****    0 ROOT


##########                                Name:    ZINC000498646479
##########                DOCK_Rotatable_Bonds:                   7
##########                         Heavy_Atoms:                  29
##########                    Molecular_Weight:              407.58
##########                DOCK_Rotatable_Bonds:                   7
##########                       Formal_Charge:          -0.0199997
##########                     HBond_Acceptors:                   5
##########                        HBond_Donors:                   0
##########                         Heavy_Atoms:                  29
##########                          Grid_Score:          -29.943867
##########                     Grid_vdw_energy:          -29.409876
##########                      Grid_es_energy:           -0.533991
##########           Internal_energy_repulsive:           29.275785

@<TRIPOS>MOLECULE
ZINC000498646479
 58 61 1 0 0
SMALL
USER_CHARGES


@<TRIPOS>ATOM
      1 C1         -1.5003    3.0771   58.5223 C.3     1  ZINC000498646479   -0.1500
      2 C2         -0.7207    4.3037   58.0440 C.3     1  ZINC000498646479   -0.0600
      3 C3         -1.1156    4.6285   56.6264 C.2     1  ZINC000498646479   -0.1700
      4 C4         -1.1366    5.8518   56.0952 C.2     1  ZINC000498646479   -0.1400
      5 C5         -1.5339    5.9056   54.7702 C.2     1  ZINC000498646479   -0.1300
      6 C6         -1.8355    4.7258   54.2256 C.2     1  ZINC000498646479   -0.1900
      7 C7         -2.2914    4.5162   52.8046 C.3     1  ZINC000498646479    0.1300
      8 N8         -3.7465    4.7016   52.7248 N.3     1  ZINC000498646479   -0.5300
      9 C9         -4.4439    3.7975   53.6490 C.3     1  ZINC000498646479    0.0400
     10 C10        -5.9363    4.1449   53.6695 C.3     1  ZINC000498646479    0.1200
     11 N11        -6.4384    4.1297   52.2871 N.am    1  ZINC000498646479   -0.6100
     12 C12        -7.5389    3.4243   51.9587 C.2     1  ZINC000498646479    0.5200
     13 O13        -7.9390    3.4230   50.8138 O.2     1  ZINC000498646479   -0.5400
     14 C14        -8.2723    2.6374   53.0141 C.3     1  ZINC000498646479   -0.1000
     15 H15        -8.2890    3.2049   53.9445 H       1  ZINC000498646479    0.0900
     16 C16        -9.7067    2.3757   52.5505 C.3     1  ZINC000498646479   -0.1500
     17 C17        -7.5590    1.3034   53.2432 C.3     1  ZINC000498646479   -0.0600
     18 C18        -8.5193    0.3199   53.8610 C.ar    1  ZINC000498646479   -0.1200
     19 C19        -8.8221    0.3783   55.2333 C.ar    1  ZINC000498646479   -0.0200
     20 C20        -8.2559    1.3388   56.0839 C.ar    1  ZINC000498646479   -0.1200
     21 C21        -8.5891    1.3443   57.4047 C.ar    1  ZINC000498646479   -0.1000
     22 C22        -9.4835    0.4098   57.9239 C.ar    1  ZINC000498646479   -0.1200
     23 C23       -10.0523   -0.5370   57.1275 C.ar    1  ZINC000498646479   -0.0900
     24 C24        -9.7334   -0.5736   55.7608 C.ar    1  ZINC000498646479   -0.1100
     25 C25       -10.2884   -1.5257   54.8909 C.ar    1  ZINC000498646479    0.1400
     26 N26        -9.9602   -1.5202   53.6200 N.ar    1  ZINC000498646479   -0.4800
     27 C27        -9.1160   -0.6397   53.1006 C.ar    1  ZINC000498646479    0.0800
     28 C28        -5.7080    4.9047   51.2728 C.3     1  ZINC000498646479    0.1100
     29 C29        -4.2246    4.5275   51.3468 C.3     1  ZINC000498646479    0.0400
     30 S30        -1.6118    3.4516   55.4172 S.3     1  ZINC000498646479    0.1300
     31 H31        -1.2147    2.8422   59.5476 H       1  ZINC000498646479    0.0600
     32 H32        -2.5691    3.2875   58.4820 H       1  ZINC000498646479    0.0600
     33 H33        -1.2726    2.2279   57.8781 H       1  ZINC000498646479    0.0600
     34 H34        -0.9484    5.1529   58.6883 H       1  ZINC000498646479    0.0800
     35 H35         0.3480    4.0933   58.0844 H       1  ZINC000498646479    0.0700
     36 H36        -0.8647    6.7336   56.6563 H       1  ZINC000498646479    0.1400
     37 H37        -1.5955    6.8325   54.2194 H       1  ZINC000498646479    0.1300
     38 H38        -1.7970    5.2378   52.1542 H       1  ZINC000498646479    0.0900
     39 H39        -2.0360    3.5055   52.4864 H       1  ZINC000498646479    0.0500
     40 H40        -4.3148    2.7675   53.3170 H       1  ZINC000498646479    0.0400
     41 H41        -4.0302    3.9117   54.6510 H       1  ZINC000498646479    0.1000
     42 H42        -6.4758    3.4072   54.2633 H       1  ZINC000498646479    0.1000
     43 H43        -6.0754    5.1372   54.0986 H       1  ZINC000498646479    0.0800
     44 H44       -10.2615    1.8805   53.3475 H       1  ZINC000498646479    0.0700
     45 H45       -10.1882    3.3227   52.3068 H       1  ZINC000498646479    0.0600
     46 H46        -9.6923    1.7375   51.6671 H       1  ZINC000498646479    0.0700
     47 H47        -7.2028    0.9133   52.2897 H       1  ZINC000498646479    0.0900
     48 H48        -6.7125    1.4543   53.9132 H       1  ZINC000498646479    0.0800
     49 H49        -7.5610    2.0684   55.6949 H       1  ZINC000498646479    0.1400
     50 H50        -8.1533    2.0840   58.0599 H       1  ZINC000498646479    0.1300
     51 H51        -9.7292    0.4368   58.9751 H       1  ZINC000498646479    0.1300
     52 H52       -10.7435   -1.2545   57.5441 H       1  ZINC000498646479    0.1300
     53 H53       -10.9839   -2.2615   55.2669 H       1  ZINC000498646479    0.1600
     54 H54        -8.8884   -0.6901   52.0460 H       1  ZINC000498646479    0.1500
     55 H55        -6.0967    4.6693   50.2821 H       1  ZINC000498646479    0.0900
     56 H56        -5.8252    5.9700   51.4715 H       1  ZINC000498646479    0.0800
     57 H57        -3.6519    5.1710   50.6790 H       1  ZINC000498646479    0.0900
     58 H58        -4.0986    3.4872   51.0468 H       1  ZINC000498646479    0.0400
@<TRIPOS>BOND
     1     1     2    1
     2     1    31    1
     3     1    32    1
     4     1    33    1
     5     2     3    1
     6     2    34    1
     7     2    35    1
     8     3    30    1
     9     3     4    2
    10     4     5    1
    11     4    36    1
    12     5     6    2
    13     5    37    1
    14     6     7    1
    15     6    30    1
    16     7     8    1
    17     7    38    1
    18     7    39    1
    19     8    29    1
    20     8     9    1
    21     9    10    1
    22     9    40    1
    23     9    41    1
    24    10    11    1
    25    10    42    1
    26    10    43    1
    27    11    12   am
    28    11    28    1
    29    12    13    2
    30    12    14    1
    31    14    15    1
    32    14    16    1
    33    14    17    1
    34    16    44    1
    35    16    45    1
    36    16    46    1
    37    17    18    1
    38    17    47    1
    39    17    48    1
    40    18    27   ar
    41    18    19   ar
    42    19    24   ar
    43    19    20   ar
    44    20    21   ar
    45    20    49    1
    46    21    22   ar
    47    21    50    1
    48    22    23   ar
    49    22    51    1
    50    23    24   ar
    51    23    52    1
    52    24    25   ar
    53    25    26   ar
    54    25    53    1
    55    26    27   ar
    56    27    54    1
    57    28    29    1
    58    28    55    1
    59    28    56    1
    60    29    57    1
    61    29    58    1
@<TRIPOS>SUBSTRUCTURE
     1 ZINC000498646479        1 TEMP              0 ****  ****    0 ROOT


##########                                Name:    ZINC000461336108
##########                DOCK_Rotatable_Bonds:                   5
##########                         Heavy_Atoms:                  26
##########                    Molecular_Weight:             373.522
##########                DOCK_Rotatable_Bonds:                   5
##########                       Formal_Charge:        -3.42727e-07
##########                     HBond_Acceptors:                   7
##########                        HBond_Donors:                   0
##########                         Heavy_Atoms:                  26
##########                          Grid_Score:          -29.925592
##########                     Grid_vdw_energy:          -29.664669
##########                      Grid_es_energy:           -0.260923
##########           Internal_energy_repulsive:           12.611473

@<TRIPOS>MOLECULE
ZINC000461336108
 53 56 1 0 0
SMALL
USER_CHARGES


@<TRIPOS>ATOM
      1 C1        -12.1543    1.3707   60.7319 C.3     1  ZINC000461336108   -0.1300
      2 C2        -10.6554    1.3399   61.0377 C.3     1  ZINC000461336108    0.0700
      3 H3        -10.1797    2.2197   60.6044 H       1  ZINC000461336108    0.0800
      4 C4        -10.4499    1.3439   62.5261 C.2     1  ZINC000461336108    0.5300
      5 O5        -11.1306    2.0836   63.2047 O.2     1  ZINC000461336108   -0.5300
      6 N6         -9.5483    0.5658   63.1340 N.am    1  ZINC000461336108   -0.6100
      7 C7         -9.3994    0.6711   64.5875 C.3     1  ZINC000461336108    0.0700
      8 C8         -8.7057   -0.3844   62.4136 C.3     1  ZINC000461336108    0.1200
      9 C9         -8.6788   -0.0369   60.9240 C.3     1  ZINC000461336108    0.0400
     10 N10       -10.0636    0.1284   60.4546 N.3     1  ZINC000461336108   -0.4300
     11 C11       -10.1172    0.1698   59.0705 C.2     1  ZINC000461336108    0.3300
     12 N12        -9.9690    1.2328   58.3155 N.2     1  ZINC000461336108   -0.2500
     13 N13       -10.0780    0.9074   57.0770 N.2     1  ZINC000461336108   -0.2800
     14 C14       -10.3004   -0.3718   56.9689 C.2     1  ZINC000461336108    0.2000
     15 C15       -10.4860   -1.1411   55.6864 C.3     1  ZINC000461336108   -0.0300
     16 C16       -10.3260   -0.1937   54.4958 C.3     1  ZINC000461336108   -0.0900
     17 C17        -8.8703   -0.2280   53.9675 C.3     1  ZINC000461336108   -0.1200
     18 C18        -9.0275    0.2472   52.5016 C.3     1  ZINC000461336108   -0.1200
     19 C19       -10.3478   -0.3990   52.0338 C.3     1  ZINC000461336108   -0.1300
     20 C20       -11.1734   -0.6793   53.3016 C.3     1  ZINC000461336108   -0.1200
     21 N21       -10.3282   -0.8882   58.2348 N.pl3   1  ZINC000461336108   -0.4900
     22 C22       -10.5475   -2.2857   58.6154 C.3     1  ZINC000461336108    0.1700
     23 C23       -11.9473   -2.4471   59.1499 C.2     1  ZINC000461336108   -0.2400
     24 C24       -13.0361   -2.6474   58.4058 C.2     1  ZINC000461336108   -0.0900
     25 C25       -14.2163   -2.7670   59.1193 C.2     1  ZINC000461336108   -0.1400
     26 C26       -14.0858   -2.6637   60.4428 C.2     1  ZINC000461336108   -0.2000
     27 S27       -12.3941   -2.4075   60.8505 S.3     1  ZINC000461336108    0.1200
     28 H28       -12.6315    0.4914   61.1646 H       1  ZINC000461336108    0.0800
     29 H29       -12.5942    2.2710   61.1608 H       1  ZINC000461336108    0.0800
     30 H30       -12.3049    1.3716   59.6523 H       1  ZINC000461336108    0.0700
     31 H31       -10.0946    1.4181   64.9708 H       1  ZINC000461336108    0.0900
     32 H32        -9.6146   -0.2943   65.0457 H       1  ZINC000461336108    0.0700
     33 H33        -8.3784    0.9678   64.8277 H       1  ZINC000461336108    0.0600
     34 H34        -7.6922   -0.3440   62.8127 H       1  ZINC000461336108    0.0900
     35 H35        -9.1035   -1.3910   62.5430 H       1  ZINC000461336108    0.0900
     36 H36        -8.1277    0.8916   60.7751 H       1  ZINC000461336108    0.0500
     37 H37        -8.1982   -0.8428   60.3692 H       1  ZINC000461336108    0.1100
     38 H38        -9.7378   -1.9313   55.6251 H       1  ZINC000461336108    0.0800
     39 H39       -11.4826   -1.5822   55.6683 H       1  ZINC000461336108    0.1000
     40 H40       -10.6083    0.8210   54.7762 H       1  ZINC000461336108    0.0900
     41 H41        -8.2387    0.4588   54.5307 H       1  ZINC000461336108    0.0600
     42 H42        -8.4699   -1.2412   54.0042 H       1  ZINC000461336108    0.0600
     43 H43        -9.0984    1.3340   52.4586 H       1  ZINC000461336108    0.0700
     44 H44        -8.1937   -0.1059   51.8947 H       1  ZINC000461336108    0.0700
     45 H45       -10.8878    0.2861   51.3805 H       1  ZINC000461336108    0.0700
     46 H46       -10.1414   -1.3317   51.5088 H       1  ZINC000461336108    0.0600
     47 H47       -11.3677   -1.7481   53.3919 H       1  ZINC000461336108    0.0700
     48 H48       -12.1142   -0.1303   53.2636 H       1  ZINC000461336108    0.0700
     49 H49       -10.4160   -2.9250   57.7423 H       1  ZINC000461336108    0.1200
     50 H50        -9.8298   -2.5697   59.3851 H       1  ZINC000461336108    0.1000
     51 H51       -12.9997   -2.7112   57.3283 H       1  ZINC000461336108    0.1400
     52 H52       -15.1704   -2.9310   58.6407 H       1  ZINC000461336108    0.1500
     53 H53       -14.8947   -2.7307   61.1552 H       1  ZINC000461336108    0.1700
@<TRIPOS>BOND
     1     1     2    1
     2     1    28    1
     3     1    29    1
     4     1    30    1
     5     2     3    1
     6     2    10    1
     7     2     4    1
     8     4     5    2
     9     4     6   am
    10     6     7    1
    11     6     8    1
    12     7    31    1
    13     7    32    1
    14     7    33    1
    15     8     9    1
    16     8    34    1
    17     8    35    1
    18     9    10    1
    19     9    36    1
    20     9    37    1
    21    10    11    1
    22    11    21    1
    23    11    12    2
    24    12    13    1
    25    13    14    2
    26    14    15    1
    27    14    21    1
    28    15    16    1
    29    15    38    1
    30    15    39    1
    31    16    20    1
    32    16    17    1
    33    16    40    1
    34    17    18    1
    35    17    41    1
    36    17    42    1
    37    18    19    1
    38    18    43    1
    39    18    44    1
    40    19    20    1
    41    19    45    1
    42    19    46    1
    43    20    47    1
    44    20    48    1
    45    21    22    1
    46    22    23    1
    47    22    49    1
    48    22    50    1
    49    23    27    1
    50    23    24    2
    51    24    25    1
    52    24    51    1
    53    25    26    2
    54    25    52    1
    55    26    27    1
    56    26    53    1
@<TRIPOS>SUBSTRUCTURE
     1 ZINC000461336108        1 TEMP              0 ****  ****    0 ROOT


##########                                Name:    ZINC001757264545
##########                DOCK_Rotatable_Bonds:                  11
##########                         Heavy_Atoms:                  25
##########                    Molecular_Weight:             344.497
##########                DOCK_Rotatable_Bonds:                  11
##########                       Formal_Charge:          0.00999946
##########                     HBond_Acceptors:                   4
##########                        HBond_Donors:                   2
##########                         Heavy_Atoms:                  25
##########                          Grid_Score:          -29.918962
##########                     Grid_vdw_energy:          -27.580128
##########                      Grid_es_energy:           -2.338835
##########           Internal_energy_repulsive:            7.841879

@<TRIPOS>MOLECULE
ZINC001757264545
 57 57 1 0 0
SMALL
USER_CHARGES


@<TRIPOS>ATOM
      1 C1         -2.5320   -2.7133   50.2714 C.1     1  ZINC001757264545   -0.2100
      2 C2         -1.7346   -2.5091   49.4342 C.1     1  ZINC001757264545   -0.1900
      3 C3         -0.7348   -2.2532   48.3846 C.3     1  ZINC001757264545   -0.0100
      4 C4          0.0743   -1.0054   48.7445 C.3     1  ZINC001757264545   -0.1200
      5 C5          0.7629   -1.2159   50.0944 C.3     1  ZINC001757264545   -0.1200
      6 C6          1.5365    0.0480   50.4749 C.3     1  ZINC001757264545   -0.1000
      7 C7          1.9588   -0.0351   51.9431 C.3     1  ZINC001757264545   -0.1400
      8 C8          2.6079    1.2617   52.3533 C.2     1  ZINC001757264545    0.5100
      9 O9          3.4326    1.7818   51.6320 O.2     1  ZINC001757264545   -0.5400
     10 N10         2.2720    1.8433   53.5218 N.am    1  ZINC001757264545   -0.7300
     11 C11         2.9016    3.1048   53.9197 C.3     1  ZINC001757264545    0.1400
     12 H12         3.0752    3.7189   53.0361 H       1  ZINC001757264545    0.1000
     13 C13         4.2364    2.8136   54.6085 C.3     1  ZINC001757264545   -0.1300
     14 C14         4.8940    4.1311   55.0241 C.3     1  ZINC001757264545   -0.1200
     15 C15         3.9733    4.8779   55.9913 C.3     1  ZINC001757264545   -0.1200
     16 C16         2.6385    5.1691   55.3025 C.3     1  ZINC001757264545   -0.1300
     17 C17         1.9809    3.8516   54.8870 C.3     1  ZINC001757264545    0.1400
     18 H18         1.8074    3.2375   55.7706 H       1  ZINC001757264545    0.1000
     19 N19         0.7028    4.1304   54.2274 N.am    1  ZINC001757264545   -0.7200
     20 C20        -0.4528    3.9710   54.9025 C.2     1  ZINC001757264545    0.6400
     21 O21        -0.4344    3.5971   56.0596 O.2     1  ZINC001757264545   -0.5200
     22 C22        -1.7022    4.2420   54.2573 C.1     1  ZINC001757264545   -0.2300
     23 C23        -2.7265    4.4640   53.7283 C.1     1  ZINC001757264545   -0.0500
     24 C24        -4.0108    4.7425   53.0651 C.3     1  ZINC001757264545    0.0300
     25 C25        -3.8338    4.6428   51.5487 C.3     1  ZINC001757264545   -0.1400
     26 C26        -5.0539    3.7222   53.5251 C.3     1  ZINC001757264545   -0.1400
     27 C27        -4.4793    6.1519   53.4324 C.3     1  ZINC001757264545   -0.1400
     28 H28        -3.2452   -2.8959   51.0200 H       1  ZINC001757264545    0.2200
     29 H29        -1.2403   -2.0961   47.4319 H       1  ZINC001757264545    0.0900
     30 H30        -0.0653   -3.1096   48.3041 H       1  ZINC001757264545    0.0900
     31 H31        -0.5926   -0.1455   48.8070 H       1  ZINC001757264545    0.0700
     32 H32         0.8269   -0.8265   47.9767 H       1  ZINC001757264545    0.0700
     33 H33         1.4530   -2.0567   50.0232 H       1  ZINC001757264545    0.0700
     34 H34         0.0122   -1.4257   50.8564 H       1  ZINC001757264545    0.0700
     35 H35         0.9007    0.9211   50.3286 H       1  ZINC001757264545    0.0700
     36 H36         2.4228    0.1345   49.8463 H       1  ZINC001757264545    0.0700
     37 H37         2.6680   -0.8529   52.0716 H       1  ZINC001757264545    0.0900
     38 H38         1.0811   -0.2145   52.5640 H       1  ZINC001757264545    0.0900
     39 H39         1.6133    1.4267   54.0993 H       1  ZINC001757264545    0.4000
     40 H40         4.0629    2.1995   55.4922 H       1  ZINC001757264545    0.0700
     41 H41         4.8924    2.2816   53.9194 H       1  ZINC001757264545    0.0800
     42 H42         5.8450    3.9236   55.5148 H       1  ZINC001757264545    0.0700
     43 H43         5.0675    4.7452   54.1404 H       1  ZINC001757264545    0.0700
     44 H44         4.4418    5.8164   56.2874 H       1  ZINC001757264545    0.0700
     45 H45         3.7998    4.2638   56.8750 H       1  ZINC001757264545    0.0700
     46 H46         2.8120    5.7832   54.4188 H       1  ZINC001757264545    0.0700
     47 H47         1.9825    5.7011   55.9916 H       1  ZINC001757264545    0.0800
     48 H48         0.6882    4.4297   53.3049 H       1  ZINC001757264545    0.4000
     49 H49        -3.5000    3.6387   51.2871 H       1  ZINC001757264545    0.0600
     50 H50        -4.7848    4.8490   51.0576 H       1  ZINC001757264545    0.0700
     51 H51        -3.0906    5.3697   51.2211 H       1  ZINC001757264545    0.0600
     52 H52        -5.1800    3.7932   54.6054 H       1  ZINC001757264545    0.0600
     53 H53        -6.0050    3.9283   53.0340 H       1  ZINC001757264545    0.0700
     54 H54        -4.7201    2.7181   53.2634 H       1  ZINC001757264545    0.0600
     55 H55        -3.7361    6.8788   53.1047 H       1  ZINC001757264545    0.0600
     56 H56        -5.4304    6.3581   52.9413 H       1  ZINC001757264545    0.0700
     57 H57        -4.6053    6.2229   54.5128 H       1  ZINC001757264545    0.0600
@<TRIPOS>BOND
     1     1     2    3
     2     1    28    1
     3     2     3    1
     4     3     4    1
     5     3    29    1
     6     3    30    1
     7     4     5    1
     8     4    31    1
     9     4    32    1
    10     5     6    1
    11     5    33    1
    12     5    34    1
    13     6     7    1
    14     6    35    1
    15     6    36    1
    16     7     8    1
    17     7    37    1
    18     7    38    1
    19     8     9    2
    20     8    10   am
    21    10    11    1
    22    10    39    1
    23    11    12    1
    24    11    17    1
    25    11    13    1
    26    13    14    1
    27    13    40    1
    28    13    41    1
    29    14    15    1
    30    14    42    1
    31    14    43    1
    32    15    16    1
    33    15    44    1
    34    15    45    1
    35    16    17    1
    36    16    46    1
    37    16    47    1
    38    17    18    1
    39    17    19    1
    40    19    20   am
    41    19    48    1
    42    20    21    2
    43    20    22    1
    44    22    23    3
    45    23    24    1
    46    24    25    1
    47    24    26    1
    48    24    27    1
    49    25    49    1
    50    25    50    1
    51    25    51    1
    52    26    52    1
    53    26    53    1
    54    26    54    1
    55    27    55    1
    56    27    56    1
    57    27    57    1
@<TRIPOS>SUBSTRUCTURE
     1 ZINC001757264545        1 TEMP              0 ****  ****    0 ROOT


##########                                Name:    ZINC001064463188
##########                DOCK_Rotatable_Bonds:                   6
##########                         Heavy_Atoms:                  25
##########                    Molecular_Weight:             342.441
##########                DOCK_Rotatable_Bonds:                   6
##########                       Formal_Charge:          -0.0100004
##########                     HBond_Acceptors:                   6
##########                        HBond_Donors:                   0
##########                         Heavy_Atoms:                  25
##########                          Grid_Score:          -29.896887
##########                     Grid_vdw_energy:          -28.636154
##########                      Grid_es_energy:           -1.260732
##########           Internal_energy_repulsive:           18.764097

@<TRIPOS>MOLECULE
ZINC001064463188
 51 54 1 0 0
SMALL
USER_CHARGES


@<TRIPOS>ATOM
      1 C1         -7.2921    1.0920   54.8325 C.3     1  ZINC001064463188    0.0400
      2 O2         -6.9616    2.2756   55.5617 O.3     1  ZINC001064463188   -0.3000
      3 C3         -7.3966    2.3506   56.8430 C.ar    1  ZINC001064463188    0.3900
      4 C4         -6.8706    3.3040   57.7133 C.ar    1  ZINC001064463188   -0.2800
      5 C5         -7.3437    3.3444   59.0116 C.ar    1  ZINC001064463188    0.2000
      6 N6         -8.2760    2.4826   59.3881 N.ar    1  ZINC001064463188   -0.5800
      7 C7         -8.7574    1.5872   58.5385 C.ar    1  ZINC001064463188    0.5300
      8 N8         -9.7317    0.7036   58.9692 N.3     1  ZINC001064463188   -0.4500
      9 C9        -10.7194    0.4612   57.9202 C.3     1  ZINC001064463188    0.0700
     10 C10       -12.1345    0.4900   58.5100 C.3     1  ZINC001064463188   -0.1200
     11 C11       -12.3818   -0.6725   59.4524 C.3     1  ZINC001064463188    0.1400
     12 H12       -13.3739   -0.5867   59.8957 H       1  ZINC001064463188    0.0900
     13 C13       -12.2452   -2.0178   58.7366 C.3     1  ZINC001064463188   -0.1300
     14 C14       -10.7569   -2.3783   58.8882 C.3     1  ZINC001064463188   -0.1300
     15 C15       -10.2354   -1.4713   60.0082 C.3     1  ZINC001064463188    0.1200
     16 H16        -9.8416   -2.0810   60.8214 H       1  ZINC001064463188    0.0900
     17 C17        -9.1234   -0.5563   59.4725 C.3     1  ZINC001064463188    0.0600
     18 N18       -11.3408   -0.6180   60.5206 N.am    1  ZINC001064463188   -0.6000
     19 C19       -11.3826    0.0520   61.6893 C.2     1  ZINC001064463188    0.5800
     20 O20       -12.3606    0.7161   61.9748 O.2     1  ZINC001064463188   -0.5400
     21 C21       -10.2454   -0.0202   62.6195 C.2     1  ZINC001064463188   -0.2200
     22 C22        -9.7115    1.0970   63.1051 C.2     1  ZINC001064463188    0.0000
     23 C23       -10.2718    2.4367   62.7022 C.3     1  ZINC001064463188   -0.1300
     24 C24        -8.5465    1.0232   64.0580 C.3     1  ZINC001064463188   -0.1200
     25 C25        -8.5091   -0.1508   65.0385 C.3     1  ZINC001064463188   -0.1900
     26 C26        -7.5391   -0.1105   63.8559 C.3     1  ZINC001064463188   -0.1600
     27 N27        -8.3336    1.5207   57.2852 N.ar    1  ZINC001064463188   -0.5900
     28 H28        -8.3760    0.9881   54.7804 H       1  ZINC001064463188    0.0600
     29 H29        -6.8848    1.1610   53.8238 H       1  ZINC001064463188    0.1000
     30 H30        -6.8678    0.2240   55.3371 H       1  ZINC001064463188    0.0600
     31 H31        -6.1102    3.9952   57.3810 H       1  ZINC001064463188    0.1500
     32 H32        -6.9568    4.0705   59.7112 H       1  ZINC001064463188    0.1800
     33 H33       -10.6309    1.2329   57.1555 H       1  ZINC001064463188    0.0800
     34 H34       -10.5356   -0.5140   57.4693 H       1  ZINC001064463188    0.0600
     35 H35       -12.2722    1.4237   59.0552 H       1  ZINC001064463188    0.0800
     36 H36       -12.8584    0.4466   57.6963 H       1  ZINC001064463188    0.0800
     37 H37       -12.8707   -2.7704   59.2166 H       1  ZINC001064463188    0.0800
     38 H38       -12.5080   -1.9177   57.6835 H       1  ZINC001064463188    0.0900
     39 H39       -10.6483   -3.4260   59.1687 H       1  ZINC001064463188    0.0800
     40 H40       -10.2227   -2.1775   57.9595 H       1  ZINC001064463188    0.0800
     41 H41        -8.6094   -1.0502   58.6480 H       1  ZINC001064463188    0.0700
     42 H42        -8.4133   -0.3391   60.2704 H       1  ZINC001064463188    0.0900
     43 H43        -9.8439   -0.9804   62.9082 H       1  ZINC001064463188    0.1200
     44 H44       -11.0584    2.7260   63.3992 H       1  ZINC001064463188    0.0800
     45 H45        -9.4776    3.1830   62.7206 H       1  ZINC001064463188    0.0800
     46 H46       -10.6846    2.3701   61.6956 H       1  ZINC001064463188    0.0700
     47 H47        -8.1620    1.9821   64.4057 H       1  ZINC001064463188    0.1400
     48 H48        -8.1001    0.0357   66.0315 H       1  ZINC001064463188    0.1000
     49 H49        -9.3271   -0.8697   64.9942 H       1  ZINC001064463188    0.1000
     50 H50        -7.7191   -0.8030   63.0337 H       1  ZINC001064463188    0.0900
     51 H51        -6.4920    0.1023   64.0709 H       1  ZINC001064463188    0.1000
@<TRIPOS>BOND
     1     1     2    1
     2     1    28    1
     3     1    29    1
     4     1    30    1
     5     2     3    1
     6     3    27   ar
     7     3     4   ar
     8     4     5   ar
     9     4    31    1
    10     5     6   ar
    11     5    32    1
    12     6     7   ar
    13     7     8    1
    14     7    27   ar
    15     8    17    1
    16     8     9    1
    17     9    10    1
    18     9    33    1
    19     9    34    1
    20    10    11    1
    21    10    35    1
    22    10    36    1
    23    11    12    1
    24    11    18    1
    25    11    13    1
    26    13    14    1
    27    13    37    1
    28    13    38    1
    29    14    15    1
    30    14    39    1
    31    14    40    1
    32    15    16    1
    33    15    17    1
    34    15    18    1
    35    17    41    1
    36    17    42    1
    37    18    19   am
    38    19    20    2
    39    19    21    1
    40    21    22    2
    41    21    43    1
    42    22    23    1
    43    22    24    1
    44    23    44    1
    45    23    45    1
    46    23    46    1
    47    24    26    1
    48    24    25    1
    49    24    47    1
    50    25    26    1
    51    25    48    1
    52    25    49    1
    53    26    50    1
    54    26    51    1
@<TRIPOS>SUBSTRUCTURE
     1 ZINC001064463188        1 TEMP              0 ****  ****    0 ROOT


##########                                Name:    ZINC000433961694
##########                DOCK_Rotatable_Bonds:                   7
##########                         Heavy_Atoms:                  29
##########                    Molecular_Weight:             413.472
##########                DOCK_Rotatable_Bonds:                   7
##########                       Formal_Charge:          0.00999992
##########                     HBond_Acceptors:                   8
##########                        HBond_Donors:                   0
##########                         Heavy_Atoms:                  29
##########                          Grid_Score:          -29.882219
##########                     Grid_vdw_energy:          -28.351458
##########                      Grid_es_energy:           -1.530762
##########           Internal_energy_repulsive:           13.275764

@<TRIPOS>MOLECULE
ZINC000433961694
 49 52 1 0 0
SMALL
USER_CHARGES


@<TRIPOS>ATOM
      1 C1        -12.6108   -2.1182   60.3980 C.3     1  ZINC000433961694   -0.1000
      2 C2        -11.1603   -1.7425   60.5584 C.2     1  ZINC000433961694    0.1600
      3 C3        -10.2354   -1.9417   59.5862 C.2     1  ZINC000433961694   -0.3000
      4 C4        -10.4815   -2.5334   58.2667 C.2     1  ZINC000433961694    0.6200
      5 O5        -10.7501   -3.7163   58.1709 O.2     1  ZINC000433961694   -0.5100
      6 N6        -10.4100   -1.7668   57.1605 N.am    1  ZINC000433961694   -0.6100
      7 C7        -10.6332   -2.2294   55.7786 C.3     1  ZINC000433961694    0.1100
      8 C8        -11.0522   -0.9589   54.9978 C.3     1  ZINC000433961694   -0.1300
      9 C9        -10.1561    0.1221   55.6578 C.3     1  ZINC000433961694    0.0800
     10 H10        -9.1603    0.1211   55.2143 H       1  ZINC000433961694    0.1000
     11 O11       -10.7562    1.4141   55.5452 O.3     1  ZINC000433961694   -0.2900
     12 C12       -10.0402    2.4690   56.0112 C.ar    1  ZINC000433961694    0.1700
     13 C13       -10.5980    3.7440   56.0616 C.ar    1  ZINC000433961694   -0.2600
     14 C14        -9.8376    4.7903   56.5419 C.ar    1  ZINC000433961694    0.1400
     15 N15        -8.5982    4.5939   56.9499 N.ar    1  ZINC000433961694   -0.5100
     16 C16        -8.0349    3.4009   56.9178 C.ar    1  ZINC000433961694    0.1400
     17 C17        -8.7313    2.3026   56.4565 C.ar    1  ZINC000433961694   -0.2000
     18 C18       -10.1030   -0.3292   57.1325 C.3     1  ZINC000433961694    0.0600
     19 S19        -8.6858   -1.3617   60.1922 S.3     1  ZINC000433961694    0.2100
     20 C20        -9.4202   -0.9151   61.6699 C.2     1  ZINC000433961694    0.0400
     21 C21        -8.6988   -0.2841   62.8328 C.3     1  ZINC000433961694    0.1400
     22 O22        -9.5148   -0.3697   64.0028 O.3     1  ZINC000433961694   -0.3000
     23 C23        -9.9323    0.8021   64.5512 C.ar    1  ZINC000433961694    0.1200
     24 C24        -9.0179    1.6474   65.1619 C.ar    1  ZINC000433961694   -0.1800
     25 C25        -9.4435    2.8379   65.7188 C.ar    1  ZINC000433961694   -0.1100
     26 C26       -10.7823    3.1872   65.6679 C.ar    1  ZINC000433961694    0.0600
     27 F27       -11.1973    4.3515   66.2132 F       1  ZINC000433961694   -0.1400
     28 C28       -11.6961    2.3445   65.0580 C.ar    1  ZINC000433961694   -0.1100
     29 C29       -11.2723    1.1561   64.4954 C.ar    1  ZINC000433961694   -0.1200
     30 N30       -10.6847   -1.1904   61.6464 N.2     1  ZINC000433961694   -0.4500
     31 H31       -13.1592   -1.2771   59.9738 H       1  ZINC000433961694    0.0800
     32 H32       -12.6920   -2.9776   59.7325 H       1  ZINC000433961694    0.1000
     33 H33       -13.0303   -2.3717   61.3715 H       1  ZINC000433961694    0.0800
     34 H34        -9.7140   -2.6435   55.3641 H       1  ZINC000433961694    0.0800
     35 H35       -11.4308   -2.9718   55.7512 H       1  ZINC000433961694    0.1000
     36 H36       -10.8253   -1.0599   53.9365 H       1  ZINC000433961694    0.1000
     37 H37       -12.1085   -0.7371   55.1503 H       1  ZINC000433961694    0.1000
     38 H38       -11.6117    3.9116   55.7289 H       1  ZINC000433961694    0.1400
     39 H39       -10.2620    5.7825   56.5842 H       1  ZINC000433961694    0.1600
     40 H40        -7.0178    3.2819   57.2608 H       1  ZINC000433961694    0.1700
     41 H41        -8.2646    1.3289   56.4330 H       1  ZINC000433961694    0.1400
     42 H42       -10.8391    0.2235   57.7162 H       1  ZINC000433961694    0.0900
     43 H43        -9.1045   -0.1607   57.5360 H       1  ZINC000433961694    0.0800
     44 H44        -7.7594   -0.8093   63.0058 H       1  ZINC000433961694    0.0900
     45 H45        -8.4937    0.7626   62.6086 H       1  ZINC000433961694    0.1000
     46 H46        -7.9736    1.3749   65.2025 H       1  ZINC000433961694    0.1400
     47 H47        -8.7317    3.4963   66.1945 H       1  ZINC000433961694    0.1400
     48 H48       -12.7401    2.6183   65.0187 H       1  ZINC000433961694    0.1500
     49 H49       -11.9853    0.4990   64.0197 H       1  ZINC000433961694    0.1400
@<TRIPOS>BOND
     1     1     2    1
     2     1    31    1
     3     1    32    1
     4     1    33    1
     5     2    30    1
     6     2     3    2
     7     3     4    1
     8     3    19    1
     9     4     5    2
    10     4     6   am
    11     6    18    1
    12     6     7    1
    13     7     8    1
    14     7    34    1
    15     7    35    1
    16     8     9    1
    17     8    36    1
    18     8    37    1
    19     9    10    1
    20     9    11    1
    21     9    18    1
    22    11    12    1
    23    12    17   ar
    24    12    13   ar
    25    13    14   ar
    26    13    38    1
    27    14    15   ar
    28    14    39    1
    29    15    16   ar
    30    16    17   ar
    31    16    40    1
    32    17    41    1
    33    18    42    1
    34    18    43    1
    35    19    20    1
    36    20    21    1
    37    20    30    2
    38    21    22    1
    39    21    44    1
    40    21    45    1
    41    22    23    1
    42    23    29   ar
    43    23    24   ar
    44    24    25   ar
    45    24    46    1
    46    25    26   ar
    47    25    47    1
    48    26    27    1
    49    26    28   ar
    50    28    29   ar
    51    28    48    1
    52    29    49    1
@<TRIPOS>SUBSTRUCTURE
     1 ZINC000433961694        1 TEMP              0 ****  ****    0 ROOT


##########                                Name:    ZINC000787750060
##########                DOCK_Rotatable_Bonds:                   6
##########                         Heavy_Atoms:                  24
##########                    Molecular_Weight:             347.438
##########                DOCK_Rotatable_Bonds:                   6
##########                       Formal_Charge:           0.0200003
##########                     HBond_Acceptors:                   7
##########                        HBond_Donors:                   2
##########                         Heavy_Atoms:                  24
##########                          Grid_Score:          -29.881739
##########                     Grid_vdw_energy:          -29.463181
##########                      Grid_es_energy:           -0.418558
##########           Internal_energy_repulsive:            6.805916

@<TRIPOS>MOLECULE
ZINC000787750060
 45 47 1 0 0
SMALL
USER_CHARGES


@<TRIPOS>ATOM
      1 C1         -7.3503    1.3605   53.1778 C.3     1  ZINC000787750060   -0.1200
      2 C2         -8.1045    0.9441   54.4143 C.ar    1  ZINC000787750060   -0.0400
      3 C3         -7.6372    1.3166   55.6638 C.ar    1  ZINC000787750060   -0.1300
      4 C4         -8.3188    0.9413   56.8014 C.ar    1  ZINC000787750060   -0.0700
      5 C5         -9.4864    0.1823   56.6952 C.ar    1  ZINC000787750060   -0.1700
      6 C6        -10.2214   -0.2224   57.9088 C.2     1  ZINC000787750060    0.5600
      7 O7        -11.1928    0.4125   58.2714 O.2     1  ZINC000787750060   -0.5200
      8 N8         -9.8159   -1.2961   58.6154 N.am    1  ZINC000787750060   -0.7300
      9 C9        -10.5446   -1.6970   59.8214 C.3     1  ZINC000787750060    0.2100
     10 C10        -9.9395   -1.0178   61.0229 C.2     1  ZINC000787750060   -0.2800
     11 C11        -8.6368   -0.8643   61.2619 C.2     1  ZINC000787750060    0.0900
     12 N12        -8.3552   -0.2324   62.3875 N.2     1  ZINC000787750060   -0.5200
     13 C13        -9.3606    0.1544   63.1097 C.2     1  ZINC000787750060    0.2300
     14 N14        -9.2585    0.8293   64.3161 N.3     1  ZINC000787750060   -0.4500
     15 C15        -8.1374    0.3136   65.1151 C.3     1  ZINC000787750060    0.0200
     16 C16        -8.0244    1.1243   66.4088 C.3     1  ZINC000787750060    0.0600
     17 O17        -9.2665    1.0616   67.1150 O.3     1  ZINC000787750060   -0.3800
     18 C18       -10.3799    1.5567   66.3664 C.3     1  ZINC000787750060    0.0600
     19 C19       -10.5168    0.7502   65.0721 C.3     1  ZINC000787750060    0.0300
     20 S20       -10.8302   -0.2817   62.3527 S.3     1  ZINC000787750060    0.1700
     21 C21        -9.9563   -0.1923   55.4287 C.ar    1  ZINC000787750060    0.1700
     22 O22       -11.0893   -0.9295   55.3129 O.3     1  ZINC000787750060   -0.4700
     23 C23        -9.2605    0.1981   54.2947 C.ar    1  ZINC000787750060   -0.1200
     24 C24        -9.7604   -0.2014   52.9302 C.3     1  ZINC000787750060   -0.1200
     25 H25        -7.7218    2.3257   52.8335 H       1  ZINC000787750060    0.0800
     26 H26        -6.2884    1.4417   53.4099 H       1  ZINC000787750060    0.0700
     27 H27        -7.4953    0.6153   52.3956 H       1  ZINC000787750060    0.0800
     28 H28        -6.7344    1.9035   55.7471 H       1  ZINC000787750060    0.1300
     29 H29        -7.9504    1.2334   57.7737 H       1  ZINC000787750060    0.1300
     30 H30        -9.0416   -1.8034   58.3255 H       1  ZINC000787750060    0.4000
     31 H31       -11.5906   -1.4053   59.7277 H       1  ZINC000787750060    0.0900
     32 H32       -10.4784   -2.7780   59.9436 H       1  ZINC000787750060    0.0800
     33 H33        -7.8733   -1.2272   60.5896 H       1  ZINC000787750060    0.1800
     34 H34        -8.3145   -0.7345   65.3567 H       1  ZINC000787750060    0.0600
     35 H35        -7.2123    0.4053   64.5461 H       1  ZINC000787750060    0.1000
     36 H36        -7.2309    0.7092   67.0304 H       1  ZINC000787750060    0.1100
     37 H37        -7.7941    2.1624   66.1689 H       1  ZINC000787750060    0.0700
     38 H38       -11.2902    1.4541   66.9571 H       1  ZINC000787750060    0.1100
     39 H39       -10.2182    2.6073   66.1251 H       1  ZINC000787750060    0.0600
     40 H40       -11.3286    1.1608   64.4717 H       1  ZINC000787750060    0.1000
     41 H41       -10.7320   -0.2908   65.3130 H       1  ZINC000787750060    0.0700
     42 H42       -11.1689   -1.3987   54.4711 H       1  ZINC000787750060    0.4000
     43 H43       -10.4405    0.5630   52.5543 H       1  ZINC000787750060    0.0700
     44 H44        -8.9156   -0.3029   52.2491 H       1  ZINC000787750060    0.0700
     45 H45       -10.2868   -1.1533   53.0005 H       1  ZINC000787750060    0.0800
@<TRIPOS>BOND
     1     1     2    1
     2     1    25    1
     3     1    26    1
     4     1    27    1
     5     2    23   ar
     6     2     3   ar
     7     3     4   ar
     8     3    28    1
     9     4     5   ar
    10     4    29    1
    11     5     6    1
    12     5    21   ar
    13     6     7    2
    14     6     8   am
    15     8     9    1
    16     8    30    1
    17     9    10    1
    18     9    31    1
    19     9    32    1
    20    10    20    1
    21    10    11    2
    22    11    12    1
    23    11    33    1
    24    12    13    2
    25    13    14    1
    26    13    20    1
    27    14    19    1
    28    14    15    1
    29    15    16    1
    30    15    34    1
    31    15    35    1
    32    16    17    1
    33    16    36    1
    34    16    37    1
    35    17    18    1
    36    18    19    1
    37    18    38    1
    38    18    39    1
    39    19    40    1
    40    19    41    1
    41    21    22    1
    42    21    23   ar
    43    22    42    1
    44    23    24    1
    45    24    43    1
    46    24    44    1
    47    24    45    1
@<TRIPOS>SUBSTRUCTURE
     1 ZINC000787750060        1 TEMP              0 ****  ****    0 ROOT


##########                                Name:    ZINC000863246516
##########                DOCK_Rotatable_Bonds:                   5
##########                         Heavy_Atoms:                  25
##########                    Molecular_Weight:             356.489
##########                DOCK_Rotatable_Bonds:                   5
##########                       Formal_Charge:         -0.00999938
##########                     HBond_Acceptors:                   5
##########                        HBond_Donors:                   0
##########                         Heavy_Atoms:                  25
##########                          Grid_Score:          -29.865891
##########                     Grid_vdw_energy:          -29.113970
##########                      Grid_es_energy:           -0.751921
##########           Internal_energy_repulsive:           15.637984

@<TRIPOS>MOLECULE
ZINC000863246516
 49 52 1 0 0
SMALL
USER_CHARGES


@<TRIPOS>ATOM
      1 C1         -9.3579    2.5946   63.2624 C.3     1  ZINC000863246516   -0.0600
      2 C2         -9.0309    1.9074   61.9616 C.2     1  ZINC000863246516   -0.2000
      3 C3         -9.1757    0.6217   61.6730 C.2     1  ZINC000863246516    0.0900
      4 C4         -9.7189   -0.3585   62.6805 C.3     1  ZINC000863246516   -0.1000
      5 N5         -8.8093    0.2301   60.4199 N.am    1  ZINC000863246516   -0.5300
      6 C6         -8.9267   -1.1661   59.9920 C.3     1  ZINC000863246516    0.1200
      7 C7        -10.3980   -1.4990   59.7360 C.3     1  ZINC000863246516   -0.1500
      8 C8        -10.5140   -2.3340   58.4868 C.2     1  ZINC000863246516    0.5400
      9 O9        -10.4939   -3.5443   58.5624 O.2     1  ZINC000863246516   -0.5300
     10 N10       -10.6399   -1.7358   57.2857 N.am    1  ZINC000863246516   -0.6100
     11 C11       -10.7610   -2.4319   55.9997 C.3     1  ZINC000863246516    0.1100
     12 C12       -11.3339   -1.4128   54.9964 C.3     1  ZINC000863246516   -0.1300
     13 H13       -12.3963   -1.5192   54.7777 H       1  ZINC000863246516    0.1000
     14 C14       -10.4093   -1.1664   53.7927 C.3     1  ZINC000863246516   -0.1200
     15 C15        -9.5706   -0.2645   54.7125 C.3     1  ZINC000863246516   -0.0600
     16 H16        -8.7859   -0.7981   55.2489 H       1  ZINC000863246516    0.1000
     17 C17        -9.0701    0.9863   54.0370 C.ar    1  ZINC000863246516   -0.0700
     18 C18        -7.7164    1.2653   54.0147 C.ar    1  ZINC000863246516   -0.1200
     19 C19        -7.2574    2.4127   53.3951 C.ar    1  ZINC000863246516   -0.1200
     20 C20        -8.1519    3.2807   52.7975 C.ar    1  ZINC000863246516   -0.1200
     21 C21        -9.5056    3.0011   52.8190 C.ar    1  ZINC000863246516   -0.1200
     22 C22        -9.9643    1.8516   53.4349 C.ar    1  ZINC000863246516   -0.1200
     23 C23       -10.8609   -0.0470   55.5535 C.3     1  ZINC000863246516   -0.1100
     24 H24       -11.4596    0.8243   55.2881 H       1  ZINC000863246516    0.1200
     25 C25       -10.6836   -0.2874   57.0600 C.3     1  ZINC000863246516    0.1200
     26 C26        -8.3369    1.1770   59.5938 C.2     1  ZINC000863246516    0.4800
     27 O27        -7.9607    1.0277   58.4447 O.2     1  ZINC000863246516   -0.4700
     28 S28        -8.3782    2.6473   60.4895 S.3     1  ZINC000863246516    0.0100
     29 H29        -9.1304    3.6574   63.1791 H       1  ZINC000863246516    0.0700
     30 H30       -10.4172    2.4663   63.4850 H       1  ZINC000863246516    0.0800
     31 H31        -8.7626    2.1574   64.0640 H       1  ZINC000863246516    0.0800
     32 H32        -9.9460    0.1639   63.6098 H       1  ZINC000863246516    0.0900
     33 H33       -10.6278   -0.8156   62.2893 H       1  ZINC000863246516    0.0800
     34 H34        -8.9759   -1.1329   62.8713 H       1  ZINC000863246516    0.0800
     35 H35        -8.3558   -1.3144   59.0754 H       1  ZINC000863246516    0.1000
     36 H36        -8.5369   -1.8193   60.7726 H       1  ZINC000863246516    0.1000
     37 H37       -10.7973   -2.0559   60.5836 H       1  ZINC000863246516    0.1000
     38 H38       -10.9628   -0.5754   59.6094 H       1  ZINC000863246516    0.1000
     39 H39        -9.7808   -2.7728   55.6662 H       1  ZINC000863246516    0.0700
     40 H40       -11.4382   -3.2804   56.0971 H       1  ZINC000863246516    0.0800
     41 H41        -9.8812   -2.0594   53.4585 H       1  ZINC000863246516    0.0800
     42 H42       -10.8908   -0.6286   52.9760 H       1  ZINC000863246516    0.0900
     43 H43        -7.0175    0.5872   54.4815 H       1  ZINC000863246516    0.1200
     44 H44        -6.1998    2.6311   53.3783 H       1  ZINC000863246516    0.1200
     45 H45        -7.7933    4.1774   52.3141 H       1  ZINC000863246516    0.1200
     46 H46       -10.2046    3.6795   52.3525 H       1  ZINC000863246516    0.1200
     47 H47       -11.0218    1.6333   53.4518 H       1  ZINC000863246516    0.1200
     48 H48       -11.5147    0.1601   57.6050 H       1  ZINC000863246516    0.0700
     49 H49        -9.7439    0.1516   57.3953 H       1  ZINC000863246516    0.0700
@<TRIPOS>BOND
     1     1     2    1
     2     1    29    1
     3     1    30    1
     4     1    31    1
     5     2    28    1
     6     2     3    2
     7     3     4    1
     8     3     5    1
     9     4    32    1
    10     4    33    1
    11     4    34    1
    12     5     6    1
    13     5    26   am
    14     6     7    1
    15     6    35    1
    16     6    36    1
    17     7     8    1
    18     7    37    1
    19     7    38    1
    20     8     9    2
    21     8    10   am
    22    10    25    1
    23    10    11    1
    24    11    12    1
    25    11    39    1
    26    11    40    1
    27    12    13    1
    28    12    23    1
    29    12    14    1
    30    14    15    1
    31    14    41    1
    32    14    42    1
    33    15    16    1
    34    15    17    1
    35    15    23    1
    36    17    22   ar
    37    17    18   ar
    38    18    19   ar
    39    18    43    1
    40    19    20   ar
    41    19    44    1
    42    20    21   ar
    43    20    45    1
    44    21    22   ar
    45    21    46    1
    46    22    47    1
    47    23    24    1
    48    23    25    1
    49    25    48    1
    50    25    49    1
    51    26    27    2
    52    26    28    1
@<TRIPOS>SUBSTRUCTURE
     1 ZINC000863246516        1 TEMP              0 ****  ****    0 ROOT


##########                                Name:    ZINC000171059239
##########                DOCK_Rotatable_Bonds:                   8
##########                         Heavy_Atoms:                  25
##########                    Molecular_Weight:              333.39
##########                DOCK_Rotatable_Bonds:                   8
##########                       Formal_Charge:         1.10269e-06
##########                     HBond_Acceptors:                   5
##########                        HBond_Donors:                   4
##########                         Heavy_Atoms:                  25
##########                          Grid_Score:          -29.865292
##########                     Grid_vdw_energy:          -27.939533
##########                      Grid_es_energy:           -1.925759
##########           Internal_energy_repulsive:            8.754072

@<TRIPOS>MOLECULE
ZINC000171059239
 44 46 1 0 0
SMALL
USER_CHARGES


@<TRIPOS>ATOM
      1 N1         -0.5016    3.3002   56.7245 N.am    1  ZINC000171059239   -0.8500
      2 C2         -1.7290    3.6301   56.2762 C.2     1  ZINC000171059239    0.5600
      3 O3         -2.6449    3.7734   57.0623 O.2     1  ZINC000171059239   -0.5400
      4 C4         -1.9614    3.8173   54.8281 C.ar    1  ZINC000171059239   -0.1400
      5 C5         -0.9625    3.4906   53.9099 C.ar    1  ZINC000171059239   -0.0900
      6 C6         -1.1861    3.6674   52.5599 C.ar    1  ZINC000171059239   -0.1200
      7 C7         -2.3970    4.1677   52.1160 C.ar    1  ZINC000171059239   -0.0800
      8 C8         -3.3915    4.4942   53.0211 C.ar    1  ZINC000171059239   -0.0900
      9 C9         -4.7073    5.0390   52.5284 C.3     1  ZINC000171059239   -0.0900
     10 C10        -5.5430    3.9001   51.9408 C.3     1  ZINC000171059239    0.1400
     11 N11        -5.5678    2.7770   52.8812 N.am    1  ZINC000171059239   -0.7400
     12 C12        -6.7118    2.0946   53.0858 C.2     1  ZINC000171059239    0.7000
     13 O13        -7.7230    2.4102   52.4889 O.2     1  ZINC000171059239   -0.5700
     14 N14        -6.7351    1.0624   53.9522 N.am    1  ZINC000171059239   -0.6800
     15 C15        -7.9204    0.3555   54.1642 C.ar    1  ZINC000171059239    0.1700
     16 C16        -8.5506    0.3849   55.4263 C.ar    1  ZINC000171059239   -0.0600
     17 C17        -8.0094    1.1183   56.4938 C.ar    1  ZINC000171059239   -0.1100
     18 C18        -8.6447    1.1243   57.6981 C.ar    1  ZINC000171059239   -0.1100
     19 C19        -9.8269    0.4117   57.8884 C.ar    1  ZINC000171059239   -0.1200
     20 C20       -10.3804   -0.3103   56.8761 C.ar    1  ZINC000171059239   -0.1000
     21 C21        -9.7529   -0.3397   55.6186 C.ar    1  ZINC000171059239   -0.0400
     22 C22       -10.2961   -1.0738   54.5508 C.ar    1  ZINC000171059239   -0.1200
     23 C23        -9.6670   -1.0841   53.3432 C.ar    1  ZINC000171059239   -0.0900
     24 C24        -8.4883   -0.3726   53.1411 C.ar    1  ZINC000171059239   -0.1200
     25 C25        -3.1832    4.3163   54.3731 C.ar    1  ZINC000171059239   -0.0500
     26 H26        -0.3493    3.1762   57.6744 H       1  ZINC000171059239    0.4100
     27 H27         0.2287    3.1831   56.0969 H       1  ZINC000171059239    0.4000
     28 H28        -0.0165    3.1006   54.2554 H       1  ZINC000171059239    0.1300
     29 H29        -0.4139    3.4149   51.8483 H       1  ZINC000171059239    0.1300
     30 H30        -2.5668    4.3045   51.0582 H       1  ZINC000171059239    0.1300
     31 H31        -5.2463    5.4939   53.3595 H       1  ZINC000171059239    0.0800
     32 H32        -4.5246    5.7898   51.7596 H       1  ZINC000171059239    0.0800
     33 H33        -6.5604    4.2493   51.7650 H       1  ZINC000171059239    0.0700
     34 H34        -5.1023    3.5751   50.9983 H       1  ZINC000171059239    0.0700
     35 H35        -4.7608    2.5245   53.3565 H       1  ZINC000171059239    0.4000
     36 H36        -5.9284    0.8107   54.4284 H       1  ZINC000171059239    0.4100
     37 H37        -7.0933    1.6747   56.3607 H       1  ZINC000171059239    0.1200
     38 H38        -8.2261    1.6895   58.5176 H       1  ZINC000171059239    0.1200
     39 H39       -10.3109    0.4323   58.8536 H       1  ZINC000171059239    0.1200
     40 H40       -11.2969   -0.8582   57.0383 H       1  ZINC000171059239    0.1300
     41 H41       -11.2118   -1.6298   54.6878 H       1  ZINC000171059239    0.1300
     42 H42       -10.0916   -1.6511   52.5280 H       1  ZINC000171059239    0.1300
     43 H43        -8.0092   -0.3970   52.1735 H       1  ZINC000171059239    0.1400
     44 H44        -3.9602    4.5712   55.0785 H       1  ZINC000171059239    0.1400
@<TRIPOS>BOND
     1     1     2   am
     2     1    26    1
     3     1    27    1
     4     2     3    2
     5     2     4    1
     6     4    25   ar
     7     4     5   ar
     8     5     6   ar
     9     5    28    1
    10     6     7   ar
    11     6    29    1
    12     7     8   ar
    13     7    30    1
    14     8     9    1
    15     8    25   ar
    16     9    10    1
    17     9    31    1
    18     9    32    1
    19    10    11    1
    20    10    33    1
    21    10    34    1
    22    11    12   am
    23    11    35    1
    24    12    13    2
    25    12    14   am
    26    14    15    1
    27    14    36    1
    28    15    24   ar
    29    15    16   ar
    30    16    21   ar
    31    16    17   ar
    32    17    18   ar
    33    17    37    1
    34    18    19   ar
    35    18    38    1
    36    19    20   ar
    37    19    39    1
    38    20    21   ar
    39    20    40    1
    40    21    22   ar
    41    22    23   ar
    42    22    41    1
    43    23    24   ar
    44    23    42    1
    45    24    43    1
    46    25    44    1
@<TRIPOS>SUBSTRUCTURE
     1 ZINC000171059239        1 TEMP              0 ****  ****    0 ROOT


##########                                Name:    ZINC001345266033
##########                DOCK_Rotatable_Bonds:                   4
##########                         Heavy_Atoms:                  29
##########                    Molecular_Weight:               389.5
##########                DOCK_Rotatable_Bonds:                   4
##########                       Formal_Charge:          -0.0100001
##########                     HBond_Acceptors:                   6
##########                        HBond_Donors:                   0
##########                         Heavy_Atoms:                  29
##########                          Grid_Score:          -29.853172
##########                     Grid_vdw_energy:          -29.311172
##########                      Grid_es_energy:           -0.542000
##########           Internal_energy_repulsive:           10.948941

@<TRIPOS>MOLECULE
ZINC001345266033
 56 61 1 0 0
SMALL
USER_CHARGES


@<TRIPOS>ATOM
      1 C1         -9.0549    3.8046   63.7642 C.ar    1  ZINC001345266033   -0.1100
      2 C2         -8.9333    4.0343   62.3962 C.ar    1  ZINC001345266033   -0.0900
      3 C3         -8.9184    2.9975   61.5091 C.ar    1  ZINC001345266033   -0.1100
      4 C4         -9.0262    1.6877   61.9824 C.ar    1  ZINC001345266033    0.0000
      5 C5         -9.1497    1.4490   63.3754 C.ar    1  ZINC001345266033   -0.1100
      6 C6         -9.1619    2.5395   64.2588 C.ar    1  ZINC001345266033   -0.0900
      7 C7         -9.2559    0.1226   63.8242 C.ar    1  ZINC001345266033    0.1700
      8 N8         -9.2418   -0.8782   62.9771 N.ar    1  ZINC001345266033   -0.4800
      9 C9         -9.1297   -0.7297   61.6676 C.ar    1  ZINC001345266033    0.0900
     10 C10        -9.0169    0.5286   61.0907 C.ar    1  ZINC001345266033   -0.0700
     11 C11        -8.8921    0.6903   59.6297 C.2     1  ZINC001345266033    0.2300
     12 N12        -7.8436    1.1438   58.9805 N.2     1  ZINC001345266033   -0.2600
     13 N13        -8.0799    1.1507   57.7174 N.2     1  ZINC001345266033   -0.3000
     14 C14        -9.2927    0.7024   57.4824 C.2     1  ZINC001345266033    0.3600
     15 N15        -9.8916    0.5680   56.2423 N.3     1  ZINC001345266033   -0.4600
     16 C16       -10.8690    1.6385   56.0115 C.3     1  ZINC001345266033    0.0600
     17 C17       -11.6708    1.3465   54.7415 C.3     1  ZINC001345266033   -0.1100
     18 C18       -10.7196    1.3221   53.5391 C.3     1  ZINC001345266033   -0.0800
     19 C19        -9.5933    0.3245   53.8300 C.3     1  ZINC001345266033   -0.1300
     20 C20        -9.7639   -1.1072   53.3248 C.3     1  ZINC001345266033   -0.1600
     21 C21        -8.7588   -0.1708   52.6502 C.3     1  ZINC001345266033   -0.1700
     22 C22        -8.8840    0.5282   55.1720 C.3     1  ZINC001345266033    0.1100
     23 N23        -9.8498    0.3888   58.6882 N.pl3   1  ZINC001345266033   -0.4600
     24 C24       -11.1909   -0.1488   58.9305 C.3     1  ZINC001345266033    0.1000
     25 C25       -11.2593   -1.5931   58.4302 C.3     1  ZINC001345266033   -0.1400
     26 H26       -10.2623   -1.9582   58.1837 H       1  ZINC001345266033    0.1000
     27 C27       -12.1937   -1.6967   57.2002 C.3     1  ZINC001345266033   -0.1500
     28 C28       -12.9488   -3.0218   57.4767 C.3     1  ZINC001345266033    0.0500
     29 O29       -13.1355   -3.0105   58.9083 O.3     1  ZINC001345266033   -0.3700
     30 C30       -11.9195   -2.4994   59.4873 C.3     1  ZINC001345266033    0.0300
     31 H31        -9.0598    4.6431   64.4450 H       1  ZINC001345266033    0.1300
     32 H32        -8.8500    5.0476   62.0318 H       1  ZINC001345266033    0.1300
     33 H33        -8.8244    3.1879   60.4502 H       1  ZINC001345266033    0.1600
     34 H34        -9.2549    2.3771   65.3224 H       1  ZINC001345266033    0.1400
     35 H35        -9.3503   -0.0759   64.8816 H       1  ZINC001345266033    0.1700
     36 H36        -9.1255   -1.6045   61.0342 H       1  ZINC001345266033    0.1700
     37 H37       -11.5477    1.6988   56.8622 H       1  ZINC001345266033    0.0700
     38 H38       -10.3461    2.5882   55.8991 H       1  ZINC001345266033    0.0500
     39 H39       -12.1630    0.3786   54.8361 H       1  ZINC001345266033    0.0800
     40 H40       -12.4203    2.1246   54.5971 H       1  ZINC001345266033    0.0800
     41 H41       -11.2639    1.0101   52.6478 H       1  ZINC001345266033    0.0700
     42 H42       -10.2982    2.3155   53.3854 H       1  ZINC001345266033    0.0700
     43 H43        -9.3658   -1.9106   53.9447 H       1  ZINC001345266033    0.0900
     44 H44       -10.6773   -1.3429   52.7786 H       1  ZINC001345266033    0.0900
     45 H45        -9.0110    0.2096   51.6604 H       1  ZINC001345266033    0.1000
     46 H46        -7.6995   -0.3581   52.8264 H       1  ZINC001345266033    0.1000
     47 H47        -8.3326    1.4682   55.1545 H       1  ZINC001345266033    0.0600
     48 H48        -8.1952   -0.2978   55.3497 H       1  ZINC001345266033    0.0800
     49 H49       -11.4047   -0.1240   59.9991 H       1  ZINC001345266033    0.1100
     50 H50       -11.9260    0.4551   58.3987 H       1  ZINC001345266033    0.1100
     51 H51       -12.8852   -0.8550   57.1650 H       1  ZINC001345266033    0.0800
     52 H52       -11.6166   -1.7631   56.2778 H       1  ZINC001345266033    0.0900
     53 H53       -13.9107   -3.0296   56.9641 H       1  ZINC001345266033    0.1000
     54 H54       -12.3450   -3.8778   57.1751 H       1  ZINC001345266033    0.0600
     55 H55       -11.2539   -3.3248   59.7399 H       1  ZINC001345266033    0.0600
     56 H56       -12.1497   -1.9194   60.3809 H       1  ZINC001345266033    0.0900
@<TRIPOS>BOND
     1     1     6   ar
     2     1     2   ar
     3     1    31    1
     4     2     3   ar
     5     2    32    1
     6     3     4   ar
     7     3    33    1
     8     4    10   ar
     9     4     5   ar
    10     5     6   ar
    11     5     7   ar
    12     6    34    1
    13     7     8   ar
    14     7    35    1
    15     8     9   ar
    16     9    10   ar
    17     9    36    1
    18    10    11    1
    19    11    23    1
    20    11    12    2
    21    12    13    1
    22    13    14    2
    23    14    15    1
    24    14    23    1
    25    15    22    1
    26    15    16    1
    27    16    17    1
    28    16    37    1
    29    16    38    1
    30    17    18    1
    31    17    39    1
    32    17    40    1
    33    18    19    1
    34    18    41    1
    35    18    42    1
    36    19    21    1
    37    19    20    1
    38    19    22    1
    39    20    21    1
    40    20    43    1
    41    20    44    1
    42    21    45    1
    43    21    46    1
    44    22    47    1
    45    22    48    1
    46    23    24    1
    47    24    25    1
    48    24    49    1
    49    24    50    1
    50    25    26    1
    51    25    30    1
    52    25    27    1
    53    27    28    1
    54    27    51    1
    55    27    52    1
    56    28    29    1
    57    28    53    1
    58    28    54    1
    59    29    30    1
    60    30    55    1
    61    30    56    1
@<TRIPOS>SUBSTRUCTURE
     1 ZINC001345266033        1 TEMP              0 ****  ****    0 ROOT


##########                                Name:    ZINC000811540126
##########                DOCK_Rotatable_Bonds:                   7
##########                         Heavy_Atoms:                  21
##########                    Molecular_Weight:             397.212
##########                DOCK_Rotatable_Bonds:                   7
##########                       Formal_Charge:           0.0100001
##########                     HBond_Acceptors:                   4
##########                        HBond_Donors:                   3
##########                         Heavy_Atoms:                  21
##########                          Grid_Score:          -29.851320
##########                     Grid_vdw_energy:          -27.533731
##########                      Grid_es_energy:           -2.317589
##########           Internal_energy_repulsive:            9.847605

@<TRIPOS>MOLECULE
ZINC000811540126
 37 38 1 0 0
SMALL
USER_CHARGES


@<TRIPOS>ATOM
      1 C1         -8.6566    2.2229   60.3425 C.3     1  ZINC000811540126   -0.1600
      2 C2         -9.0885    0.8561   59.8074 C.3     1  ZINC000811540126    0.1200
      3 H3        -10.1769    0.8029   59.7828 H       1  ZINC000811540126    0.1000
      4 N4         -8.5598    0.6724   58.4535 N.am    1  ZINC000811540126   -0.7200
      5 C5         -9.2641    1.1082   57.3902 C.2     1  ZINC000811540126    0.5700
      6 O6        -10.3389    1.6524   57.5546 O.2     1  ZINC000811540126   -0.5100
      7 C7         -8.7309    0.9248   56.0269 C.ar    1  ZINC000811540126   -0.1600
      8 C8         -9.4400    0.1682   55.0912 C.ar    1  ZINC000811540126   -0.0400
      9 C9         -8.9361    0.0007   53.8188 C.ar    1  ZINC000811540126   -0.1200
     10 I10       -10.0008   -1.1346   52.4165 I       1  ZINC000811540126   -0.0300
     11 C11        -7.7288    0.5802   53.4634 C.ar    1  ZINC000811540126   -0.0400
     12 C12        -7.0177    1.3303   54.3792 C.ar    1  ZINC000811540126   -0.1500
     13 C13        -7.5125    1.5138   55.6614 C.ar    1  ZINC000811540126    0.1900
     14 O14        -6.8151    2.2509   56.5618 O.3     1  ZINC000811540126   -0.4700
     15 C15        -8.5446   -0.2442   60.7209 C.3     1  ZINC000811540126    0.1400
     16 H16        -7.4550   -0.2202   60.7096 H       1  ZINC000811540126    0.1300
     17 O17        -8.9980   -1.5170   60.2557 O.3     1  ZINC000811540126   -0.5400
     18 C18        -9.0374   -0.0187   62.1271 C.ar    1  ZINC000811540126   -0.1200
     19 C19       -10.3560    0.3309   62.3497 C.ar    1  ZINC000811540126   -0.1100
     20 C20       -10.8081    0.5378   63.6396 C.ar    1  ZINC000811540126   -0.1100
     21 C21        -9.9413    0.3945   64.7070 C.ar    1  ZINC000811540126   -0.1200
     22 C22        -8.6228    0.0441   64.4844 C.ar    1  ZINC000811540126   -0.1100
     23 C23        -8.1720   -0.1670   63.1948 C.ar    1  ZINC000811540126   -0.1100
     24 H24        -9.0440    3.0068   59.6917 H       1  ZINC000811540126    0.0600
     25 H25        -9.0499    2.3595   61.3498 H       1  ZINC000811540126    0.0700
     26 H26        -7.5682    2.2761   60.3671 H       1  ZINC000811540126    0.0700
     27 H27        -7.7029    0.2372   58.3223 H       1  ZINC000811540126    0.3900
     28 H28       -10.3814   -0.2853   55.3642 H       1  ZINC000811540126    0.1300
     29 H29        -7.3415    0.4443   52.4645 H       1  ZINC000811540126    0.1400
     30 H30        -6.0772    1.7786   54.0948 H       1  ZINC000811540126    0.1500
     31 H31        -5.8619    2.2709   56.3999 H       1  ZINC000811540126    0.4000
     32 H32        -8.6423   -2.2667   60.7522 H       1  ZINC000811540126    0.3700
     33 H33       -11.0332    0.4429   61.5158 H       1  ZINC000811540126    0.1100
     34 H34       -11.8382    0.8116   63.8134 H       1  ZINC000811540126    0.1200
     35 H35       -10.2943    0.5568   65.7147 H       1  ZINC000811540126    0.1200
     36 H36        -7.9456   -0.0676   65.3183 H       1  ZINC000811540126    0.1300
     37 H37        -7.1418   -0.4409   63.0210 H       1  ZINC000811540126    0.1200
@<TRIPOS>BOND
     1     1     2    1
     2     1    24    1
     3     1    25    1
     4     1    26    1
     5     2     3    1
     6     2     4    1
     7     2    15    1
     8     4     5   am
     9     4    27    1
    10     5     6    2
    11     5     7    1
    12     7    13   ar
    13     7     8   ar
    14     8     9   ar
    15     8    28    1
    16     9    10    1
    17     9    11   ar
    18    11    12   ar
    19    11    29    1
    20    12    13   ar
    21    12    30    1
    22    13    14    1
    23    14    31    1
    24    15    16    1
    25    15    17    1
    26    15    18    1
    27    17    32    1
    28    18    23   ar
    29    18    19   ar
    30    19    20   ar
    31    19    33    1
    32    20    21   ar
    33    20    34    1
    34    21    22   ar
    35    21    35    1
    36    22    23   ar
    37    22    36    1
    38    23    37    1
@<TRIPOS>SUBSTRUCTURE
     1 ZINC000811540126        1 TEMP              0 ****  ****    0 ROOT


##########                                Name:    ZINC001109404798
##########                DOCK_Rotatable_Bonds:                   7
##########                         Heavy_Atoms:                  25
##########                    Molecular_Weight:              360.48
##########                DOCK_Rotatable_Bonds:                   7
##########                       Formal_Charge:           0.0100002
##########                     HBond_Acceptors:                   7
##########                        HBond_Donors:                   1
##########                         Heavy_Atoms:                  25
##########                          Grid_Score:          -29.831472
##########                     Grid_vdw_energy:          -30.537136
##########                      Grid_es_energy:            0.705663
##########           Internal_energy_repulsive:           27.943016

@<TRIPOS>MOLECULE
ZINC001109404798
 49 52 1 0 0
SMALL
USER_CHARGES


@<TRIPOS>ATOM
      1 C1         -9.6910    0.6399   65.6479 C.3     1  ZINC001109404798   -0.0600
      2 C2         -9.2091    0.3226   64.2557 C.2     1  ZINC001109404798    0.1700
      3 N3         -8.0183   -0.0812   63.9275 N.2     1  ZINC001109404798   -0.3900
      4 O4         -7.9478   -0.2501   62.7285 O.3     1  ZINC001109404798    0.1000
      5 C5         -9.1226    0.0386   62.1606 C.2     1  ZINC001109404798    0.1900
      6 C6         -9.4535   -0.0407   60.6925 C.3     1  ZINC001109404798    0.1600
      7 H7        -10.4762    0.3001   60.5315 H       1  ZINC001109404798    0.1000
      8 C8         -9.3178   -1.4886   60.2167 C.3     1  ZINC001109404798   -0.1500
      9 N9         -8.5280    0.8123   59.9351 N.3     1  ZINC001109404798   -0.4800
     10 C10        -8.7470    2.2672   60.2591 C.3     1  ZINC001109404798    0.0400
     11 H11        -8.5528    2.5592   61.2912 H       1  ZINC001109404798    0.1100
     12 C12       -10.2130    2.4645   59.7683 C.3     1  ZINC001109404798   -0.1600
     13 C13       -10.3211    1.5064   58.5568 C.3     1  ZINC001109404798   -0.1600
     14 C14        -8.9060    0.8581   58.4775 C.3     1  ZINC001109404798    0.0400
     15 H15        -8.8519   -0.0897   57.9419 H       1  ZINC001109404798    0.1200
     16 C16        -7.9737    1.9870   57.9435 C.3     1  ZINC001109404798    0.1500
     17 H17        -6.9952    1.5846   57.6814 H       1  ZINC001109404798    0.1000
     18 N18        -8.5810    2.6549   56.7898 N.am    1  ZINC001109404798   -0.7200
     19 C19        -8.2435    2.2804   55.5398 C.2     1  ZINC001109404798    0.5100
     20 O20        -7.4382    1.3896   55.3702 O.2     1  ZINC001109404798   -0.5300
     21 C21        -8.8669    2.9686   54.3528 C.3     1  ZINC001109404798   -0.1300
     22 C22        -8.5450    2.1825   53.0804 C.3     1  ZINC001109404798   -0.0400
     23 C23        -9.3833    0.9310   53.0374 C.2     1  ZINC001109404798   -0.1000
     24 C24       -10.6828    0.9478   52.7366 C.2     1  ZINC001109404798   -0.2100
     25 S25       -11.3209   -0.6904   52.7860 S.3     1  ZINC001109404798    0.1000
     26 C26        -9.7404   -1.3248   53.2252 C.2     1  ZINC001109404798   -0.2100
     27 C27        -8.8620   -0.3239   53.3013 C.2     1  ZINC001109404798   -0.1300
     28 C28        -7.8469    2.9504   59.1857 C.3     1  ZINC001109404798   -0.1100
     29 N29        -9.9340    0.3995   63.1255 N.2     1  ZINC001109404798   -0.4800
     30 H30       -10.1003   -0.2611   66.1049 H       1  ZINC001109404798    0.0900
     31 H31        -8.8566    1.0043   66.2470 H       1  ZINC001109404798    0.0900
     32 H32       -10.4648    1.4059   65.5986 H       1  ZINC001109404798    0.0900
     33 H33       -10.0045   -2.1216   60.7787 H       1  ZINC001109404798    0.0700
     34 H34        -9.5571   -1.5460   59.1549 H       1  ZINC001109404798    0.0800
     35 H35        -8.2950   -1.8296   60.3777 H       1  ZINC001109404798    0.0800
     36 H36       -10.9201    2.1795   60.5473 H       1  ZINC001109404798    0.0700
     37 H37       -10.3780    3.4961   59.4575 H       1  ZINC001109404798    0.0800
     38 H38       -11.0818    0.7464   58.7354 H       1  ZINC001109404798    0.0700
     39 H39       -10.5399    2.0630   57.6456 H       1  ZINC001109404798    0.0800
     40 H40        -9.2259    3.3666   56.9253 H       1  ZINC001109404798    0.4000
     41 H41        -9.9475    3.0166   54.4868 H       1  ZINC001109404798    0.0900
     42 H42        -8.4663    3.9788   54.2669 H       1  ZINC001109404798    0.1000
     43 H43        -8.7653    2.7975   52.2078 H       1  ZINC001109404798    0.0800
     44 H44        -7.4889    1.9126   53.0774 H       1  ZINC001109404798    0.0800
     45 H45       -11.2555    1.8322   52.4995 H       1  ZINC001109404798    0.1600
     46 H46        -9.5146   -2.3661   53.4017 H       1  ZINC001109404798    0.1600
     47 H47        -7.8244   -0.4798   53.5572 H       1  ZINC001109404798    0.1400
     48 H48        -8.2431    3.9376   58.9477 H       1  ZINC001109404798    0.0800
     49 H49        -6.8095    3.0207   59.5126 H       1  ZINC001109404798    0.0900
@<TRIPOS>BOND
     1     1     2    1
     2     1    30    1
     3     1    31    1
     4     1    32    1
     5     2    29    1
     6     2     3    2
     7     3     4    1
     8     4     5    1
     9     5     6    1
    10     5    29    2
    11     6     7    1
    12     6     8    1
    13     6     9    1
    14     8    33    1
    15     8    34    1
    16     8    35    1
    17     9    14    1
    18     9    10    1
    19    10    11    1
    20    10    28    1
    21    10    12    1
    22    12    13    1
    23    12    36    1
    24    12    37    1
    25    13    14    1
    26    13    38    1
    27    13    39    1
    28    14    15    1
    29    14    16    1
    30    16    17    1
    31    16    18    1
    32    16    28    1
    33    18    19   am
    34    18    40    1
    35    19    20    2
    36    19    21    1
    37    21    22    1
    38    21    41    1
    39    21    42    1
    40    22    23    1
    41    22    43    1
    42    22    44    1
    43    23    27    1
    44    23    24    2
    45    24    25    1
    46    24    45    1
    47    25    26    1
    48    26    27    2
    49    26    46    1
    50    27    47    1
    51    28    48    1
    52    28    49    1
@<TRIPOS>SUBSTRUCTURE
     1 ZINC001109404798        1 TEMP              0 ****  ****    0 ROOT


##########                                Name:    ZINC000265724350
##########                DOCK_Rotatable_Bonds:                   8
##########                         Heavy_Atoms:                  23
##########                    Molecular_Weight:              345.42
##########                DOCK_Rotatable_Bonds:                   8
##########                       Formal_Charge:          -0.0300002
##########                     HBond_Acceptors:                   9
##########                        HBond_Donors:                   2
##########                         Heavy_Atoms:                  23
##########                          Grid_Score:          -29.825275
##########                     Grid_vdw_energy:          -29.740208
##########                      Grid_es_energy:           -0.085068
##########           Internal_energy_repulsive:            5.794106

@<TRIPOS>MOLECULE
ZINC000265724350
 46 47 1 0 0
SMALL
USER_CHARGES


@<TRIPOS>ATOM
      1 C1        -10.3521    2.4615   64.7347 C.3     1  ZINC000265724350    0.0800
      2 N2         -8.9805    1.9538   64.8202 N.am    1  ZINC000265724350   -1.1100
      3 S3         -8.6513    0.3843   64.4073 S.o2    1  ZINC000265724350    2.7200
      4 O4         -7.2376    0.2466   64.4486 O.2     1  ZINC000265724350   -0.9300
      5 O5         -9.5337   -0.4254   65.1720 O.2     1  ZINC000265724350   -0.9300
      6 C6         -9.1223    0.1788   62.7218 C.2     1  ZINC000265724350   -0.5600
      7 C7         -8.9026    1.0690   61.7292 C.2     1  ZINC000265724350   -0.0900
      8 C8         -9.4322    0.5153   60.5531 C.2     1  ZINC000265724350   -0.1400
      9 C9         -9.9546   -0.6999   60.8920 C.2     1  ZINC000265724350   -0.0200
     10 C10       -10.6155   -1.6387   59.9793 C.2     1  ZINC000265724350    0.6000
     11 O11       -11.0756   -2.6811   60.4069 O.2     1  ZINC000265724350   -0.5000
     12 N12       -10.7133   -1.3469   58.6672 N.am    1  ZINC000265724350   -0.7100
     13 C13       -11.3750   -2.2839   57.7558 C.3     1  ZINC000265724350    0.1200
     14 C14       -11.9412   -1.5172   56.5590 C.3     1  ZINC000265724350   -0.1100
     15 H15       -12.2453   -2.2231   55.7861 H       1  ZINC000265724350    0.0800
     16 C16       -13.1529   -0.6969   57.0058 C.3     1  ZINC000265724350   -0.1400
     17 C17       -10.8688   -0.5798   56.0002 C.3     1  ZINC000265724350    0.0600
     18 N18       -10.9190   -0.5984   54.5322 N.3     1  ZINC000265724350   -0.5300
     19 C19        -9.6870   -1.1707   53.9700 C.3     1  ZINC000265724350    0.0100
     20 C20        -9.8061   -1.2260   52.4447 C.3     1  ZINC000265724350    0.0600
     21 O21       -10.0703    0.0874   51.9443 O.3     1  ZINC000265724350   -0.3900
     22 C22       -11.2634    0.6748   52.4705 C.3     1  ZINC000265724350    0.0600
     23 C23       -11.1591    0.7493   53.9961 C.3     1  ZINC000265724350    0.0200
     24 O24        -9.7515   -0.8881   62.2124 O.3     1  ZINC000265724350   -0.1100
     25 H25       -10.3727    3.5065   65.0440 H       1  ZINC000265724350    0.0900
     26 H26       -10.7064    2.3798   63.7071 H       1  ZINC000265724350    0.0600
     27 H27       -10.9978    1.8760   65.3892 H       1  ZINC000265724350    0.0700
     28 H28        -8.2652    2.5370   65.1188 H       1  ZINC000265724350    0.4200
     29 H29        -8.4120    2.0265   61.8231 H       1  ZINC000265724350    0.1800
     30 H30        -9.4275    0.9636   59.5706 H       1  ZINC000265724350    0.1700
     31 H31       -10.3455   -0.5167   58.3262 H       1  ZINC000265724350    0.4100
     32 H32       -10.6530   -3.0218   57.4061 H       1  ZINC000265724350    0.0800
     33 H33       -12.1860   -2.7893   58.2802 H       1  ZINC000265724350    0.0700
     34 H34       -13.9170   -1.3647   57.4039 H       1  ZINC000265724350    0.0500
     35 H35       -12.8489    0.0090   57.7786 H       1  ZINC000265724350    0.0600
     36 H36       -13.5563   -0.1507   56.1532 H       1  ZINC000265724350    0.0700
     37 H37       -11.0505    0.4339   56.3571 H       1  ZINC000265724350    0.0800
     38 H38        -9.8859   -0.9121   56.3344 H       1  ZINC000265724350    0.0400
     39 H39        -8.8368   -0.5471   54.2464 H       1  ZINC000265724350    0.0400
     40 H40        -9.5424   -2.1781   54.3606 H       1  ZINC000265724350    0.0900
     41 H41        -8.8730   -1.5965   52.0200 H       1  ZINC000265724350    0.1000
     42 H42       -10.6228   -1.8924   52.1673 H       1  ZINC000265724350    0.0600
     43 H43       -11.3843    1.6790   52.0645 H       1  ZINC000265724350    0.1000
     44 H44       -12.1225    0.0637   52.1938 H       1  ZINC000265724350    0.0600
     45 H45       -12.0890    1.1436   54.4057 H       1  ZINC000265724350    0.0900
     46 H46       -10.3324    1.4037   54.2729 H       1  ZINC000265724350    0.0400
@<TRIPOS>BOND
     1     1     2    1
     2     1    25    1
     3     1    26    1
     4     1    27    1
     5     2     3   am
     6     2    28    1
     7     3     4    2
     8     3     5    2
     9     3     6    1
    10     6    24    1
    11     6     7    2
    12     7     8    1
    13     7    29    1
    14     8     9    2
    15     8    30    1
    16     9    10    1
    17     9    24    1
    18    10    11    2
    19    10    12   am
    20    12    13    1
    21    12    31    1
    22    13    14    1
    23    13    32    1
    24    13    33    1
    25    14    15    1
    26    14    16    1
    27    14    17    1
    28    16    34    1
    29    16    35    1
    30    16    36    1
    31    17    18    1
    32    17    37    1
    33    17    38    1
    34    18    23    1
    35    18    19    1
    36    19    20    1
    37    19    39    1
    38    19    40    1
    39    20    21    1
    40    20    41    1
    41    20    42    1
    42    21    22    1
    43    22    23    1
    44    22    43    1
    45    22    44    1
    46    23    45    1
    47    23    46    1
@<TRIPOS>SUBSTRUCTURE
     1 ZINC000265724350        1 TEMP              0 ****  ****    0 ROOT


##########                                Name:    ZINC000609484313
##########                DOCK_Rotatable_Bonds:                  10
##########                         Heavy_Atoms:                  26
##########                    Molecular_Weight:             361.487
##########                DOCK_Rotatable_Bonds:                  10
##########                       Formal_Charge:          -0.0200004
##########                     HBond_Acceptors:                   7
##########                        HBond_Donors:                   1
##########                         Heavy_Atoms:                  26
##########                          Grid_Score:          -29.789341
##########                     Grid_vdw_energy:          -29.704275
##########                      Grid_es_energy:           -0.085066
##########           Internal_energy_repulsive:           40.948009

@<TRIPOS>MOLECULE
ZINC000609484313
 57 58 1 0 0
SMALL
USER_CHARGES


@<TRIPOS>ATOM
      1 C1        -14.2833   -2.7075   60.2186 C.3     1  ZINC000609484313   -0.1500
      2 C2        -15.0794   -3.4022   59.1120 C.3     1  ZINC000609484313   -0.1300
      3 C3        -14.2058   -3.5374   57.8632 C.3     1  ZINC000609484313   -0.1100
      4 C4        -14.0885   -2.1769   57.1731 C.3     1  ZINC000609484313   -0.1100
      5 C5        -12.6496   -1.9693   56.6962 C.3     1  ZINC000609484313    0.0800
      6 H6        -12.2093   -2.9328   56.4395 H       1  ZINC000609484313    0.1200
      7 C7        -12.6466   -1.0762   55.4824 C.2     1  ZINC000609484313    0.4900
      8 O8        -13.4416   -0.1642   55.3985 O.2     1  ZINC000609484313   -0.5000
      9 N9        -11.7605   -1.2911   54.4898 N.am    1  ZINC000609484313   -0.6300
     10 C10       -11.7566   -0.4634   53.3670 C.2     1  ZINC000609484313    0.2400
     11 N11       -10.7092    0.0174   52.7500 N.2     1  ZINC000609484313   -0.3900
     12 O12       -11.0273    0.7044   51.8073 O.3     1  ZINC000609484313    0.1000
     13 C13       -12.3593    0.7729   51.6695 C.2     1  ZINC000609484313   -0.0200
     14 C14       -13.1173    1.5332   50.6120 C.3     1  ZINC000609484313   -0.0800
     15 C15       -12.8897    0.0213   52.6609 C.2     1  ZINC000609484313   -0.2300
     16 N16       -11.8644   -1.3419   57.7676 N.3     1  ZINC000609484313   -0.5000
     17 C17       -11.2476   -0.0908   57.3052 C.3     1  ZINC000609484313    0.0400
     18 C18       -10.5065    0.5703   58.4696 C.3     1  ZINC000609484313    0.0500
     19 N19        -9.4892   -0.3549   58.9878 N.3     1  ZINC000609484313   -0.5100
     20 C20        -8.7039    0.2724   60.0593 C.3     1  ZINC000609484313    0.1800
     21 H21        -7.8743   -0.3801   60.3315 H       1  ZINC000609484313    0.1200
     22 C22        -8.1782    1.5648   59.5900 C.1     1  ZINC000609484313    0.1700
     23 N23        -7.7725    2.5621   59.2278 N.1     1  ZINC000609484313   -0.4200
     24 C24        -9.5971    0.4984   61.2807 C.3     1  ZINC000609484313   -0.0800
     25 C25        -9.2634   -0.5382   62.3554 C.3     1  ZINC000609484313   -0.1400
     26 C26        -9.3563    1.9038   61.8356 C.3     1  ZINC000609484313   -0.1500
     27 C27       -10.1060   -1.6060   59.4503 C.3     1  ZINC000609484313    0.0500
     28 C28       -10.8471   -2.2672   58.2859 C.3     1  ZINC000609484313    0.0400
     29 H29       -13.3992   -3.2991   60.4561 H       1  ZINC000609484313    0.0500
     30 H30       -13.9779   -1.7176   59.8799 H       1  ZINC000609484313    0.0500
     31 H31       -14.9058   -2.6112   61.1082 H       1  ZINC000609484313    0.0500
     32 H32       -15.3849   -4.3921   59.4507 H       1  ZINC000609484313    0.0600
     33 H33       -15.9637   -2.8106   58.8744 H       1  ZINC000609484313    0.0600
     34 H34       -13.2137   -3.8862   58.1498 H       1  ZINC000609484313    0.0800
     35 H35       -14.6593   -4.2542   57.1785 H       1  ZINC000609484313    0.0600
     36 H36       -14.7631   -2.1441   56.3176 H       1  ZINC000609484313    0.0700
     37 H37       -14.3555   -1.3884   57.8767 H       1  ZINC000609484313    0.0800
     38 H38       -11.1254   -2.0213   54.5564 H       1  ZINC000609484313    0.4200
     39 H39       -12.4121    2.0377   49.9515 H       1  ZINC000609484313    0.0800
     40 H40       -13.7260    0.8396   50.0319 H       1  ZINC000609484313    0.0900
     41 H41       -13.7621    2.2722   51.0876 H       1  ZINC000609484313    0.0900
     42 H42       -13.9329   -0.1620   52.8714 H       1  ZINC000609484313    0.1900
     43 H43       -10.5434   -0.3078   56.5021 H       1  ZINC000609484313    0.0800
     44 H44       -12.0223    0.5825   56.9379 H       1  ZINC000609484313    0.0800
     45 H45       -10.0239    1.4838   58.1218 H       1  ZINC000609484313    0.0900
     46 H46       -11.2154    0.8120   59.2615 H       1  ZINC000609484313    0.0400
     47 H47       -10.6427    0.3968   60.9901 H       1  ZINC000609484313    0.0800
     48 H48        -8.2177   -0.4365   62.6461 H       1  ZINC000609484313    0.0600
     49 H49        -9.8997   -0.3772   63.2256 H       1  ZINC000609484313    0.0500
     50 H50        -9.4349   -1.5394   61.9602 H       1  ZINC000609484313    0.0700
     51 H51        -9.9219    2.0319   62.7585 H       1  ZINC000609484313    0.0700
     52 H52        -8.2938    2.0370   62.0391 H       1  ZINC000609484313    0.0600
     53 H53        -9.6817    2.6438   61.1044 H       1  ZINC000609484313    0.0500
     54 H54        -9.3314   -2.2793   59.8176 H       1  ZINC000609484313    0.0900
     55 H55       -10.8103   -1.3890   60.2534 H       1  ZINC000609484313    0.0400
     56 H56       -11.3296   -3.1805   58.6336 H       1  ZINC000609484313    0.0800
     57 H57       -10.1382   -2.5088   57.4939 H       1  ZINC000609484313    0.0800
@<TRIPOS>BOND
     1     1     2    1
     2     1    29    1
     3     1    30    1
     4     1    31    1
     5     2     3    1
     6     2    32    1
     7     2    33    1
     8     3     4    1
     9     3    34    1
    10     3    35    1
    11     4     5    1
    12     4    36    1
    13     4    37    1
    14     5     6    1
    15     5     7    1
    16     5    16    1
    17     7     8    2
    18     7     9   am
    19     9    10    1
    20     9    38    1
    21    10    15    1
    22    10    11    2
    23    11    12    1
    24    12    13    1
    25    13    14    1
    26    13    15    2
    27    14    39    1
    28    14    40    1
    29    14    41    1
    30    15    42    1
    31    16    28    1
    32    16    17    1
    33    17    18    1
    34    17    43    1
    35    17    44    1
    36    18    19    1
    37    18    45    1
    38    18    46    1
    39    19    20    1
    40    19    27    1
    41    20    21    1
    42    20    22    1
    43    20    24    1
    44    22    23    3
    45    24    25    1
    46    24    26    1
    47    24    47    1
    48    25    48    1
    49    25    49    1
    50    25    50    1
    51    26    51    1
    52    26    52    1
    53    26    53    1
    54    27    28    1
    55    27    54    1
    56    27    55    1
    57    28    56    1
    58    28    57    1
@<TRIPOS>SUBSTRUCTURE
     1 ZINC000609484313        1 TEMP              0 ****  ****    0 ROOT


##########                                Name:    ZINC000291036115
##########                DOCK_Rotatable_Bonds:                   5
##########                         Heavy_Atoms:                  22
##########                    Molecular_Weight:             366.193
##########                DOCK_Rotatable_Bonds:                   5
##########                       Formal_Charge:                0.01
##########                     HBond_Acceptors:                   7
##########                        HBond_Donors:                   0
##########                         Heavy_Atoms:                  22
##########                          Grid_Score:          -29.783476
##########                     Grid_vdw_energy:          -28.067461
##########                      Grid_es_energy:           -1.716014
##########           Internal_energy_repulsive:            7.566757

@<TRIPOS>MOLECULE
ZINC000291036115
 35 37 1 0 0
SMALL
USER_CHARGES


@<TRIPOS>ATOM
      1 C1        -12.2950   -3.1327   57.4558 C.3     1  <0>        -0.1500
      2 C2        -11.4054   -1.9023   57.2665 C.3     1  <0>        -0.0400
      3 H3        -10.3811   -2.1480   57.5469 H       1  <0>         0.0900
      4 C4        -11.9167   -0.7626   58.1500 C.3     1  <0>        -0.0200
      5 C5        -11.1624   -0.7612   59.4546 C.2     1  <0>         0.1900
      6 N6        -10.0248   -0.1562   59.6985 N.2     1  <0>        -0.4500
      7 C7         -9.7368   -0.4308   60.9831 C.2     1  <0>         0.1500
      8 C8         -8.5246    0.0387   61.7455 C.3     1  <0>         0.2300
      9 N9         -8.8236    0.0498   63.1796 N.pl3   1  <0>        -0.3900
     10 C10        -7.9656   -0.2019   64.1834 C.2     1  <0>         0.2600
     11 N11        -8.6177   -0.0911   65.3123 N.2     1  <0>        -0.5400
     12 C12        -9.8884    0.2287   65.0706 C.2     1  <0>         0.2000
     13 N13       -10.0620    0.3314   63.7791 N.2     1  <0>        -0.3100
     14 N14       -10.6961   -1.1749   61.4466 N.2     1  <0>        -0.3600
     15 O15       -11.5280   -1.3715   60.5859 O.3     1  <0>         0.0900
     16 C16       -11.4418   -1.4735   55.8223 C.ar    1  <0>        -0.0900
     17 C17       -12.6527   -1.2059   55.2118 C.ar    1  <0>        -0.0700
     18 C18       -12.6879   -0.8120   53.8873 C.ar    1  <0>        -0.1400
     19 C19       -11.5099   -0.6855   53.1717 C.ar    1  <0>         0.1300
     20 F20       -11.5431   -0.3002   51.8772 F       1  <0>        -0.1200
     21 C21       -10.2963   -0.9540   53.7844 C.ar    1  <0>        -0.1300
     22 Br22       -8.6855   -0.7813   52.8091 Br      1  <0>        -0.0200
     23 C23       -10.2636   -1.3426   55.1108 C.ar    1  <0>        -0.0500
     24 H24       -12.2686   -3.4429   58.5004 H       1  <0>         0.0600
     25 H25       -13.3192   -2.8871   57.1754 H       1  <0>         0.0700
     26 H26       -11.9307   -3.9447   56.8264 H       1  <0>         0.0700
     27 H27       -11.7632    0.1888   57.6406 H       1  <0>         0.1200
     28 H28       -12.9798   -0.9029   58.3451 H       1  <0>         0.1100
     29 H29        -7.6906   -0.6363   61.5534 H       1  <0>         0.1300
     30 H30        -8.2593    1.0452   61.4219 H       1  <0>         0.1200
     31 H31        -6.9204   -0.4525   64.0767 H       1  <0>         0.2200
     32 H32       -10.6503    0.3823   65.8204 H       1  <0>         0.2200
     33 H33       -13.5720   -1.3049   55.7699 H       1  <0>         0.1400
     34 H34       -13.6343   -0.6033   53.4107 H       1  <0>         0.1500
     35 H35        -9.3181   -1.5521   55.5888 H       1  <0>         0.1400
@<TRIPOS>BOND
     1     1     2    1
     2     1    24    1
     3     1    25    1
     4     1    26    1
     5     2     3    1
     6     2     4    1
     7     2    16    1
     8     4     5    1
     9     4    27    1
    10     4    28    1
    11     5    15    1
    12     5     6    2
    13     6     7    1
    14     7     8    1
    15     7    14    2
    16     8     9    1
    17     8    29    1
    18     8    30    1
    19     9    13    1
    20     9    10    1
    21    10    11    2
    22    10    31    1
    23    11    12    1
    24    12    13    2
    25    12    32    1
    26    14    15    1
    27    16    23   ar
    28    16    17   ar
    29    17    18   ar
    30    17    33    1
    31    18    19   ar
    32    18    34    1
    33    19    20    1
    34    19    21   ar
    35    21    22    1
    36    21    23   ar
    37    23    35    1
@<TRIPOS>SUBSTRUCTURE
     1 <0>         1 TEMP              0 ****  ****    0 ROOT


##########                                Name:    ZINC000668548901
##########                DOCK_Rotatable_Bonds:                   9
##########                         Heavy_Atoms:                  26
##########                    Molecular_Weight:             374.464
##########                DOCK_Rotatable_Bonds:                   9
##########                       Formal_Charge:         3.53903e-07
##########                     HBond_Acceptors:                   8
##########                        HBond_Donors:                   3
##########                         Heavy_Atoms:                  26
##########                          Grid_Score:          -29.775988
##########                     Grid_vdw_energy:          -28.012608
##########                      Grid_es_energy:           -1.763381
##########           Internal_energy_repulsive:            9.815364

@<TRIPOS>MOLECULE
ZINC000668548901
 48 50 1 0 0
SMALL
USER_CHARGES


@<TRIPOS>ATOM
      1 O1         -7.2972    3.3599   53.2889 O.2     1  ZINC000668548901   -0.5700
      2 C2         -6.3352    2.6187   53.2314 C.2     1  ZINC000668548901    0.7100
      3 N3         -6.3661    1.4248   53.8561 N.am    1  ZINC000668548901   -0.6800
      4 C4         -7.5002    1.0418   54.5736 C.ar    1  ZINC000668548901    0.2200
      5 C5         -7.7687    1.5858   55.8307 C.ar    1  ZINC000668548901   -0.1700
      6 C6         -8.8983    1.1840   56.5110 C.ar    1  ZINC000668548901    0.1200
      7 N7         -9.7239    0.2954   55.9902 N.ar    1  ZINC000668548901   -0.4300
      8 C8         -9.5067   -0.2461   54.7998 C.ar    1  ZINC000668548901    0.1100
      9 S9        -10.6462   -1.4268   54.1577 S.3     1  ZINC000668548901    0.0900
     10 C10       -11.5463   -1.9272   55.5875 C.ar    1  ZINC000668548901    0.0900
     11 C11       -12.8302   -1.4359   55.8008 C.ar    1  ZINC000668548901   -0.1500
     12 C12       -13.5256   -1.8375   56.9272 C.ar    1  ZINC000668548901   -0.0700
     13 C13       -12.9113   -2.7203   57.8056 C.ar    1  ZINC000668548901   -0.1700
     14 C14       -11.6340   -3.1682   57.5317 C.ar    1  ZINC000668548901    0.1000
     15 N15       -10.9964   -2.7722   56.4468 N.ar    1  ZINC000668548901   -0.4200
     16 C16        -8.3937    0.1126   54.0511 C.ar    1  ZINC000668548901   -0.1800
     17 N17        -5.2400    2.9886   52.5386 N.am    1  ZINC000668548901   -0.7200
     18 C18        -5.2065    4.2863   51.8596 C.3     1  ZINC000668548901    0.1700
     19 H19        -5.7632    5.0175   52.4457 H       1  ZINC000668548901    0.1000
     20 C20        -5.8411    4.1534   50.4738 C.3     1  ZINC000668548901    0.0600
     21 O21        -6.2888    5.4357   50.0298 O.3     1  ZINC000668548901   -0.5700
     22 C22        -3.7551    4.7482   51.7136 C.3     1  ZINC000668548901   -0.1300
     23 H23        -3.3824    4.4718   50.7273 H       1  ZINC000668548901    0.1000
     24 C24        -2.8949    4.0813   52.7914 C.3     1  ZINC000668548901   -0.1200
     25 C25        -1.4613    4.6102   52.6845 C.3     1  ZINC000668548901   -0.1600
     26 C26        -1.4773    6.1355   52.8153 C.3     1  ZINC000668548901    0.0600
     27 O27        -2.3196    6.6902   51.8029 O.3     1  ZINC000668548901   -0.3800
     28 C28        -3.6828    6.2682   51.8804 C.3     1  ZINC000668548901    0.0700
     29 H29        -5.6000    0.8318   53.8069 H       1  ZINC000668548901    0.4100
     30 H30        -7.0989    2.3129   56.2656 H       1  ZINC000668548901    0.1500
     31 H31        -9.1106    1.6020   57.4840 H       1  ZINC000668548901    0.1600
     32 H32       -13.2778   -0.7501   55.0969 H       1  ZINC000668548901    0.1400
     33 H33       -14.5237   -1.4724   57.1193 H       1  ZINC000668548901    0.1400
     34 H34       -13.4270   -3.0528   58.6943 H       1  ZINC000668548901    0.1400
     35 H35       -11.1525   -3.8545   58.2124 H       1  ZINC000668548901    0.1600
     36 H36        -8.2194   -0.3302   53.0816 H       1  ZINC000668548901    0.1400
     37 H37        -4.4739    2.3956   52.4894 H       1  ZINC000668548901    0.4000
     38 H38        -5.1037    3.7630   49.7724 H       1  ZINC000668548901    0.0500
     39 H39        -6.6892    3.4707   50.5266 H       1  ZINC000668548901    0.0600
     40 H40        -6.7494    5.4190   49.1798 H       1  ZINC000668548901    0.3800
     41 H41        -3.2977    4.3162   53.7766 H       1  ZINC000668548901    0.0700
     42 H42        -2.8971    3.0014   52.6431 H       1  ZINC000668548901    0.0700
     43 H43        -0.8547    4.1825   53.4828 H       1  ZINC000668548901    0.0800
     44 H44        -1.0415    4.3319   51.7179 H       1  ZINC000668548901    0.0700
     45 H45        -1.8595    6.4120   53.7980 H       1  ZINC000668548901    0.0500
     46 H46        -0.4646    6.5210   52.6973 H       1  ZINC000668548901    0.1000
     47 H47        -4.2579    6.7500   51.0897 H       1  ZINC000668548901    0.1000
     48 H48        -4.0947    6.5460   52.8505 H       1  ZINC000668548901    0.0500
@<TRIPOS>BOND
     1     1     2    2
     2     2     3   am
     3     2    17   am
     4     3     4    1
     5     3    29    1
     6     4    16   ar
     7     4     5   ar
     8     5     6   ar
     9     5    30    1
    10     6     7   ar
    11     6    31    1
    12     7     8   ar
    13     8     9    1
    14     8    16   ar
    15     9    10    1
    16    10    15   ar
    17    10    11   ar
    18    11    12   ar
    19    11    32    1
    20    12    13   ar
    21    12    33    1
    22    13    14   ar
    23    13    34    1
    24    14    15   ar
    25    14    35    1
    26    16    36    1
    27    17    18    1
    28    17    37    1
    29    18    19    1
    30    18    20    1
    31    18    22    1
    32    20    21    1
    33    20    38    1
    34    20    39    1
    35    21    40    1
    36    22    23    1
    37    22    28    1
    38    22    24    1
    39    24    25    1
    40    24    41    1
    41    24    42    1
    42    25    26    1
    43    25    43    1
    44    25    44    1
    45    26    27    1
    46    26    45    1
    47    26    46    1
    48    27    28    1
    49    28    47    1
    50    28    48    1
@<TRIPOS>SUBSTRUCTURE
     1 ZINC000668548901        1 TEMP              0 ****  ****    0 ROOT


##########                                Name:    ZINC001078110631
##########                DOCK_Rotatable_Bonds:                   7
##########                         Heavy_Atoms:                  25
##########                    Molecular_Weight:             353.369
##########                DOCK_Rotatable_Bonds:                   7
##########                       Formal_Charge:           0.0100006
##########                     HBond_Acceptors:                   8
##########                        HBond_Donors:                   2
##########                         Heavy_Atoms:                  25
##########                          Grid_Score:          -29.764130
##########                     Grid_vdw_energy:          -28.873644
##########                      Grid_es_energy:           -0.890486
##########           Internal_energy_repulsive:            5.672173

@<TRIPOS>MOLECULE
ZINC001078110631
 46 48 1 0 0
SMALL
USER_CHARGES


@<TRIPOS>ATOM
      1 O1        -10.6549   -3.0800   59.5338 O.2     1  ZINC001078110631   -0.5100
      2 C2        -10.5431   -1.8707   59.4737 C.2     1  ZINC001078110631    0.5600
      3 N3        -10.7063   -1.2365   58.2957 N.am    1  ZINC001078110631   -0.7200
      4 C4        -11.0124   -2.0049   57.0865 C.3     1  ZINC001078110631    0.1500
      5 H5        -10.5271   -2.9801   57.1253 H       1  ZINC001078110631    0.1200
      6 C6        -10.5597   -1.2303   55.8302 C.3     1  ZINC001078110631    0.0300
      7 N7        -11.6097   -1.5127   54.8177 N.3     1  ZINC001078110631   -0.5000
      8 C8        -11.6098   -0.4925   53.7608 C.3     1  ZINC001078110631    0.0300
      9 C9        -10.5972   -0.8775   52.6803 C.3     1  ZINC001078110631    0.1300
     10 N10        -9.6957    0.2502   52.4318 N.am    1  ZINC001078110631   -0.6200
     11 C11       -10.1411    1.6083   52.0980 C.3     1  ZINC001078110631    0.1000
     12 C12        -8.9194    2.5178   52.3567 C.3     1  ZINC001078110631   -0.1300
     13 C13        -7.7457    1.5265   52.1818 C.3     1  ZINC001078110631   -0.1600
     14 C14        -8.3547    0.1755   52.4858 C.2     1  ZINC001078110631    0.5200
     15 O15        -7.7246   -0.8305   52.7347 O.2     1  ZINC001078110631   -0.5200
     16 C16       -12.8788   -1.4800   55.5893 C.3     1  ZINC001078110631    0.0000
     17 C17       -12.5380   -2.1715   56.9295 C.3     1  ZINC001078110631    0.1000
     18 H18       -13.0588   -1.6809   57.7518 H       1  ZINC001078110631    0.0700
     19 O19       -12.8881   -3.5560   56.8768 O.3     1  ZINC001078110631   -0.5500
     20 C20       -10.2347   -1.0967   60.6918 C.ar    1  ZINC001078110631   -0.1900
     21 C21        -8.9286   -1.0571   61.1856 C.ar    1  ZINC001078110631   -0.0300
     22 C22        -8.6461   -0.3330   62.3233 C.ar    1  ZINC001078110631   -0.1700
     23 C23        -9.6550    0.3567   62.9797 C.ar    1  ZINC001078110631    0.1600
     24 F24        -9.3705    1.0644   64.0948 F       1  ZINC001078110631   -0.1200
     25 C25       -10.9529    0.3231   62.4966 C.ar    1  ZINC001078110631   -0.2000
     26 C26       -11.2484   -0.3950   61.3538 C.ar    1  ZINC001078110631    0.2000
     27 F27       -12.5141   -0.4278   60.8827 F       1  ZINC001078110631   -0.1000
     28 H28       -10.6211   -0.2714   58.2486 H       1  ZINC001078110631    0.4000
     29 H29       -10.5111   -0.1617   56.0394 H       1  ZINC001078110631    0.0500
     30 H30        -9.5921   -1.5958   55.4864 H       1  ZINC001078110631    0.1000
     31 H31       -12.6043   -0.4264   53.3197 H       1  ZINC001078110631    0.0400
     32 H32       -11.3366    0.4726   54.1873 H       1  ZINC001078110631    0.0800
     33 H33       -10.0184   -1.7384   53.0149 H       1  ZINC001078110631    0.0900
     34 H34       -11.1253   -1.1300   51.7609 H       1  ZINC001078110631    0.0800
     35 H35       -10.4358    1.6616   51.0500 H       1  ZINC001078110631    0.0700
     36 H36       -10.9720    1.9012   52.7397 H       1  ZINC001078110631    0.0800
     37 H37        -8.8665    3.3189   51.6195 H       1  ZINC001078110631    0.0900
     38 H38        -8.9413    2.9218   53.3688 H       1  ZINC001078110631    0.0800
     39 H39        -7.3687    1.5580   51.1595 H       1  ZINC001078110631    0.1100
     40 H40        -6.9483    1.7505   52.8905 H       1  ZINC001078110631    0.1000
     41 H41       -13.1930   -0.4506   55.7608 H       1  ZINC001078110631    0.0600
     42 H42       -13.6573   -2.0336   55.0642 H       1  ZINC001078110631    0.0900
     43 H43       -12.5734   -4.0114   56.0839 H       1  ZINC001078110631    0.3800
     44 H44        -8.1415   -1.5933   60.6766 H       1  ZINC001078110631    0.1500
     45 H45        -7.6364   -0.3025   62.7053 H       1  ZINC001078110631    0.1500
     46 H46       -11.7343    0.8619   63.0120 H       1  ZINC001078110631    0.1600
@<TRIPOS>BOND
     1     1     2    2
     2     2     3   am
     3     2    20    1
     4     3     4    1
     5     3    28    1
     6     4     5    1
     7     4    17    1
     8     4     6    1
     9     6     7    1
    10     6    29    1
    11     6    30    1
    12     7     8    1
    13     7    16    1
    14     8     9    1
    15     8    31    1
    16     8    32    1
    17     9    10    1
    18     9    33    1
    19     9    34    1
    20    10    14   am
    21    10    11    1
    22    11    12    1
    23    11    35    1
    24    11    36    1
    25    12    13    1
    26    12    37    1
    27    12    38    1
    28    13    14    1
    29    13    39    1
    30    13    40    1
    31    14    15    2
    32    16    17    1
    33    16    41    1
    34    16    42    1
    35    17    18    1
    36    17    19    1
    37    19    43    1
    38    20    26   ar
    39    20    21   ar
    40    21    22   ar
    41    21    44    1
    42    22    23   ar
    43    22    45    1
    44    23    24    1
    45    23    25   ar
    46    25    26   ar
    47    25    46    1
    48    26    27    1
@<TRIPOS>SUBSTRUCTURE
     1 ZINC001078110631        1 TEMP              0 ****  ****    0 ROOT


##########                                Name:    ZINC000854704989
##########                DOCK_Rotatable_Bonds:                   5
##########                         Heavy_Atoms:                  22
##########                    Molecular_Weight:             365.227
##########                DOCK_Rotatable_Bonds:                   5
##########                       Formal_Charge:        -1.78814e-07
##########                     HBond_Acceptors:                   5
##########                        HBond_Donors:                   1
##########                         Heavy_Atoms:                  22
##########                          Grid_Score:          -29.762861
##########                     Grid_vdw_energy:          -29.961342
##########                      Grid_es_energy:            0.198480
##########           Internal_energy_repulsive:            5.814245

@<TRIPOS>MOLECULE
ZINC000854704989
 39 41 1 0 0
SMALL
USER_CHARGES


@<TRIPOS>ATOM
      1 O1         -9.5130   -1.3755   58.8809 O.2     1  ZINC000854704989   -0.5300
      2 C2         -9.1808   -0.2368   59.1465 C.2     1  ZINC000854704989    0.5700
      3 N3         -9.1293    0.1678   60.4311 N.am    1  ZINC000854704989   -0.7300
      4 C4         -9.4797   -0.7628   61.5069 C.3     1  ZINC000854704989    0.2000
      5 C5         -8.8735   -0.2854   62.8014 C.2     1  ZINC000854704989   -0.0500
      6 C6         -9.4928    0.4277   63.7717 C.2     1  ZINC000854704989   -0.1700
      7 C7         -8.4909    0.6104   64.7538 C.2     1  ZINC000854704989    0.0000
      8 Br8        -8.6688    1.5293   66.3970 Br      1  ZINC000854704989    0.0600
      9 N9         -7.4215    0.0198   64.3015 N.2     1  ZINC000854704989   -0.3200
     10 O10        -7.6169   -0.4881   63.2217 O.3     1  ZINC000854704989    0.1300
     11 C11        -8.8272    0.7025   58.0609 C.ar    1  ZINC000854704989   -0.1300
     12 C12        -8.2024    1.9144   58.3584 C.ar    1  ZINC000854704989   -0.0900
     13 C13        -7.8747    2.7863   57.3405 C.ar    1  ZINC000854704989   -0.1200
     14 C14        -8.1646    2.4616   56.0274 C.ar    1  ZINC000854704989   -0.0900
     15 C15        -8.7840    1.2615   55.7256 C.ar    1  ZINC000854704989   -0.0800
     16 C16        -9.0958    0.9161   54.2922 C.3     1  ZINC000854704989   -0.0800
     17 H17        -8.7934    1.7394   53.6451 H       1  ZINC000854704989    0.0900
     18 C18       -10.6003    0.6714   54.1402 C.3     1  ZINC000854704989   -0.1100
     19 C19       -10.8940    0.2457   52.6984 C.3     1  ZINC000854704989   -0.1600
     20 C20       -10.0664   -0.9978   52.3630 C.3     1  ZINC000854704989    0.0600
     21 O21        -8.6796   -0.7112   52.5546 O.3     1  ZINC000854704989   -0.3800
     22 C22        -8.3364   -0.3525   53.8947 C.3     1  ZINC000854704989    0.0700
     23 C23        -9.1117    0.3784   56.7332 C.ar    1  ZINC000854704989   -0.0500
     24 H24        -8.8604    1.0753   60.6432 H       1  ZINC000854704989    0.4000
     25 H25       -10.5639   -0.8090   61.6085 H       1  ZINC000854704989    0.1100
     26 H26        -9.0945   -1.7544   61.2692 H       1  ZINC000854704989    0.1000
     27 H27       -10.5147    0.7765   63.7915 H       1  ZINC000854704989    0.1900
     28 H28        -7.9763    2.1693   59.3833 H       1  ZINC000854704989    0.1200
     29 H29        -7.3912    3.7244   57.5695 H       1  ZINC000854704989    0.1300
     30 H30        -7.9066    3.1478   55.2343 H       1  ZINC000854704989    0.1300
     31 H31       -10.9123   -0.1179   54.8242 H       1  ZINC000854704989    0.0700
     32 H32       -11.1437    1.5885   54.3675 H       1  ZINC000854704989    0.0700
     33 H33       -11.9545    0.0160   52.5953 H       1  ZINC000854704989    0.0800
     34 H34       -10.6278    1.0547   52.0183 H       1  ZINC000854704989    0.0700
     35 H35       -10.3618   -1.8183   53.0169 H       1  ZINC000854704989    0.0500
     36 H36       -10.2391   -1.2802   51.3245 H       1  ZINC000854704989    0.1000
     37 H37        -7.2636   -0.1707   53.9589 H       1  ZINC000854704989    0.1000
     38 H38        -8.6088   -1.1639   54.5695 H       1  ZINC000854704989    0.0500
     39 H39        -9.5947   -0.5581   56.4963 H       1  ZINC000854704989    0.1400
@<TRIPOS>BOND
     1     1     2    2
     2     2     3   am
     3     2    11    1
     4     3     4    1
     5     3    24    1
     6     4     5    1
     7     4    25    1
     8     4    26    1
     9     5    10    1
    10     5     6    2
    11     6     7    1
    12     6    27    1
    13     7     8    1
    14     7     9    2
    15     9    10    1
    16    11    23   ar
    17    11    12   ar
    18    12    13   ar
    19    12    28    1
    20    13    14   ar
    21    13    29    1
    22    14    15   ar
    23    14    30    1
    24    15    16    1
    25    15    23   ar
    26    16    17    1
    27    16    22    1
    28    16    18    1
    29    18    19    1
    30    18    31    1
    31    18    32    1
    32    19    20    1
    33    19    33    1
    34    19    34    1
    35    20    21    1
    36    20    35    1
    37    20    36    1
    38    21    22    1
    39    22    37    1
    40    22    38    1
    41    23    39    1
@<TRIPOS>SUBSTRUCTURE
     1 ZINC000854704989        1 TEMP              0 ****  ****    0 ROOT


##########                                Name:    ZINC001141221454
##########                DOCK_Rotatable_Bonds:                   7
##########                         Heavy_Atoms:                  27
##########                    Molecular_Weight:             369.439
##########                DOCK_Rotatable_Bonds:                   7
##########                       Formal_Charge:          0.00999935
##########                     HBond_Acceptors:                   6
##########                        HBond_Donors:                   1
##########                         Heavy_Atoms:                  27
##########                          Grid_Score:          -29.761623
##########                     Grid_vdw_energy:          -30.025267
##########                      Grid_es_energy:            0.263642
##########           Internal_energy_repulsive:           14.975091

@<TRIPOS>MOLECULE
ZINC001141221454
 51 54 1 0 0
SMALL
USER_CHARGES


@<TRIPOS>ATOM
      1 C1         -7.5479    2.9790   51.1246 C.3     1  ZINC001141221454    0.0300
      2 O2         -7.7260    1.7423   51.8182 O.3     1  ZINC001141221454   -0.3100
      3 C3         -8.9457    1.5170   52.3749 C.ar    1  ZINC001141221454    0.0900
      4 C4         -9.9696    2.4345   52.1988 C.ar    1  ZINC001141221454   -0.1800
      5 C5        -11.2091    2.2033   52.7652 C.ar    1  ZINC001141221454   -0.0900
      6 C6        -11.4291    1.0582   53.5074 C.ar    1  ZINC001141221454   -0.1200
      7 C7        -10.4102    0.1403   53.6861 C.ar    1  ZINC001141221454   -0.0800
      8 C8        -10.6535   -1.1068   54.4963 C.3     1  ZINC001141221454    0.0900
      9 N9         -9.9385   -1.0069   55.7756 N.3     1  ZINC001141221454   -0.5100
     10 C10        -9.9306    0.3931   56.2734 C.3     1  ZINC001141221454    0.0300
     11 C11        -9.6492    0.2321   57.7900 C.3     1  ZINC001141221454   -0.0700
     12 C12       -10.4275   -1.0481   58.1450 C.3     1  ZINC001141221454   -0.1000
     13 C13       -11.5064   -1.0427   59.2202 C.3     1  ZINC001141221454   -0.1400
     14 C14       -10.1854   -1.7802   59.4584 C.3     1  ZINC001141221454   -0.1800
     15 H15       -10.2064   -2.8698   59.4388 H       1  ZINC001141221454    0.1300
     16 C16        -9.2104   -1.1659   60.4294 C.2     1  ZINC001141221454    0.5500
     17 O17        -8.0172   -1.2725   60.2398 O.2     1  ZINC001141221454   -0.5300
     18 N18        -9.6642   -0.4980   61.5084 N.am    1  ZINC001141221454   -0.7300
     19 C19        -8.7163    0.0977   62.4533 C.3     1  ZINC001141221454    0.1700
     20 C20        -9.4016    0.3257   63.7760 C.ar    1  ZINC001141221454   -0.1600
     21 C21        -8.6981    0.1937   64.9631 C.ar    1  ZINC001141221454   -0.0600
     22 C22        -9.3697    0.4136   66.1562 C.ar    1  ZINC001141221454   -0.1700
     23 C23       -10.7083    0.7545   66.1226 C.ar    1  ZINC001141221454    0.1100
     24 N24       -11.3461    0.8712   64.9740 N.ar    1  ZINC001141221454   -0.4800
     25 C25       -10.7384    0.6748   63.8205 C.ar    1  ZINC001141221454    0.1200
     26 C26       -10.6129   -1.8058   56.8245 C.3     1  ZINC001141221454    0.0700
     27 C27        -9.1699    0.3637   53.1169 C.ar    1  ZINC001141221454    0.0900
     28 F28        -8.1742   -0.5327   53.2912 F       1  ZINC001141221454   -0.1300
     29 H29        -6.5332    3.0314   50.7300 H       1  ZINC001141221454    0.1000
     30 H30        -8.2610    3.0404   50.3025 H       1  ZINC001141221454    0.0600
     31 H31        -7.7137    3.8083   51.8122 H       1  ZINC001141221454    0.0600
     32 H32        -9.7991    3.3299   51.6194 H       1  ZINC001141221454    0.1400
     33 H33       -12.0065    2.9186   52.6281 H       1  ZINC001141221454    0.1300
     34 H34       -12.3986    0.8801   53.9489 H       1  ZINC001141221454    0.1300
     35 H35       -11.7217   -1.2152   54.6846 H       1  ZINC001141221454    0.0600
     36 H36       -10.2920   -1.9746   53.9448 H       1  ZINC001141221454    0.0900
     37 H37        -9.1373    0.9669   55.7941 H       1  ZINC001141221454    0.0800
     38 H38       -10.8998    0.8645   56.1101 H       1  ZINC001141221454    0.0500
     39 H39        -8.5830    0.0994   57.9733 H       1  ZINC001141221454    0.0900
     40 H40       -10.0349    1.0859   58.3473 H       1  ZINC001141221454    0.0700
     41 H41       -11.6694   -0.1130   59.7653 H       1  ZINC001141221454    0.1000
     42 H42       -12.3960   -1.6474   59.0439 H       1  ZINC001141221454    0.1100
     43 H43       -10.6185   -0.4116   61.6594 H       1  ZINC001141221454    0.4000
     44 H44        -7.8710   -0.5760   62.5935 H       1  ZINC001141221454    0.0800
     45 H45        -8.3606    1.0499   62.0596 H       1  ZINC001141221454    0.0800
     46 H46        -7.6518   -0.0743   64.9588 H       1  ZINC001141221454    0.1400
     47 H47        -8.8530    0.3192   67.1000 H       1  ZINC001141221454    0.1400
     48 H48       -11.2386    0.9270   67.0474 H       1  ZINC001141221454    0.1600
     49 H49       -11.2936    0.7794   62.9001 H       1  ZINC001141221454    0.1600
     50 H50       -11.6743   -1.9017   56.5954 H       1  ZINC001141221454    0.0500
     51 H51       -10.1555   -2.7927   56.8935 H       1  ZINC001141221454    0.0900
@<TRIPOS>BOND
     1     1     2    1
     2     1    29    1
     3     1    30    1
     4     1    31    1
     5     2     3    1
     6     3    27   ar
     7     3     4   ar
     8     4     5   ar
     9     4    32    1
    10     5     6   ar
    11     5    33    1
    12     6     7   ar
    13     6    34    1
    14     7     8    1
    15     7    27   ar
    16     8     9    1
    17     8    35    1
    18     8    36    1
    19     9    26    1
    20     9    10    1
    21    10    11    1
    22    10    37    1
    23    10    38    1
    24    11    12    1
    25    11    39    1
    26    11    40    1
    27    12    14    1
    28    12    13    1
    29    12    26    1
    30    13    14    1
    31    13    41    1
    32    13    42    1
    33    14    15    1
    34    14    16    1
    35    16    17    2
    36    16    18   am
    37    18    19    1
    38    18    43    1
    39    19    20    1
    40    19    44    1
    41    19    45    1
    42    20    25   ar
    43    20    21   ar
    44    21    22   ar
    45    21    46    1
    46    22    23   ar
    47    22    47    1
    48    23    24   ar
    49    23    48    1
    50    24    25   ar
    51    25    49    1
    52    26    50    1
    53    26    51    1
    54    27    28    1
@<TRIPOS>SUBSTRUCTURE
     1 ZINC001141221454        1 TEMP              0 ****  ****    0 ROOT


##########                                Name:    ZINC000822449555
##########                DOCK_Rotatable_Bonds:                   5
##########                         Heavy_Atoms:                  27
##########                    Molecular_Weight:             366.383
##########                DOCK_Rotatable_Bonds:                   5
##########                       Formal_Charge:          -0.0100009
##########                     HBond_Acceptors:                  10
##########                        HBond_Donors:                   2
##########                         Heavy_Atoms:                  27
##########                          Grid_Score:          -29.757046
##########                     Grid_vdw_energy:          -27.030983
##########                      Grid_es_energy:           -2.726063
##########           Internal_energy_repulsive:            8.319870

@<TRIPOS>MOLECULE
ZINC000822449555
 45 48 1 0 0
SMALL
USER_CHARGES


@<TRIPOS>ATOM
      1 C1         -1.1101    3.5419   53.8772 C.3     1  ZINC000822449555   -0.1100
      2 C2         -1.7241    3.7019   55.2443 C.ar    1  ZINC000822449555    0.1400
      3 N3         -0.9564    3.6396   56.3153 N.ar    1  ZINC000822449555   -0.5000
      4 C4         -1.4523    3.7746   57.5353 C.ar    1  ZINC000822449555    0.3000
      5 N5         -0.6024    3.7014   58.6356 N.3     1  ZINC000822449555   -0.4700
      6 C6         -0.9956    2.6053   59.5330 C.3     1  ZINC000822449555    0.0200
      7 C7         -0.0022    2.5231   60.6950 C.3     1  ZINC000822449555    0.0600
      8 O8          0.0420    3.7843   61.3679 O.3     1  ZINC000822449555   -0.3800
      9 C9          0.4222    4.8744   60.5236 C.3     1  ZINC000822449555    0.0600
     10 C10        -0.5669    4.9803   59.3598 C.3     1  ZINC000822449555    0.0300
     11 C11        -2.8125    3.9890   57.7302 C.ar    1  ZINC000822449555   -0.1700
     12 C12        -3.6480    4.0600   56.6306 C.ar    1  ZINC000822449555   -0.0500
     13 C13        -3.0889    3.9184   55.3615 C.ar    1  ZINC000822449555    0.0600
     14 N14        -3.8974    3.9834   54.2191 N.am    1  ZINC000822449555   -0.6600
     15 C15        -4.0834    5.1613   53.5913 C.2     1  ZINC000822449555    0.5700
     16 O16        -3.5498    6.1678   54.0163 O.2     1  ZINC000822449555   -0.5100
     17 C17        -4.9358    5.2297   52.3870 C.ar    1  ZINC000822449555   -0.1800
     18 C18        -4.8930    6.3523   51.5490 C.ar    1  ZINC000822449555   -0.0100
     19 C19        -5.7082    6.3709   50.4344 C.ar    1  ZINC000822449555   -0.1300
     20 C20        -6.5402    5.2811   50.1815 C.ar    1  ZINC000822449555    0.2300
     21 C21        -7.4189    5.2930   48.9866 C.2     1  ZINC000822449555    0.2100
     22 N22        -8.3305    4.3941   48.6701 N.2     1  ZINC000822449555   -0.2500
     23 N23        -8.8781    4.7611   47.5628 N.pl3   1  ZINC000822449555   -0.2200
     24 N24        -8.3430    5.8632   47.1675 N.2     1  ZINC000822449555   -0.0400
     25 N25        -7.4451    6.2229   48.0207 N.2     1  ZINC000822449555   -0.2500
     26 N26        -6.5560    4.2327   50.9958 N.ar    1  ZINC000822449555   -0.4500
     27 C27        -5.7913    4.1740   52.0640 C.ar    1  ZINC000822449555    0.1400
     28 H28        -0.8052    4.5178   53.4994 H       1  ZINC000822449555    0.0800
     29 H29        -0.2391    2.8899   53.9442 H       1  ZINC000822449555    0.0800
     30 H30        -1.8418    3.1023   53.1994 H       1  ZINC000822449555    0.0700
     31 H31        -1.9960    2.7946   59.9221 H       1  ZINC000822449555    0.0600
     32 H32        -0.9903    1.6646   58.9825 H       1  ZINC000822449555    0.1000
     33 H33        -0.3217    1.7493   61.3929 H       1  ZINC000822449555    0.1100
     34 H34         0.9885    2.2808   60.3105 H       1  ZINC000822449555    0.0600
     35 H35         0.4096    5.8008   61.0976 H       1  ZINC000822449555    0.1000
     36 H36         1.4252    4.7003   60.1341 H       1  ZINC000822449555    0.0600
     37 H37        -0.2489    5.7732   58.6830 H       1  ZINC000822449555    0.1000
     38 H38        -1.5605    5.2075   59.7463 H       1  ZINC000822449555    0.0600
     39 H39        -3.2113    4.0984   58.7279 H       1  ZINC000822449555    0.1400
     40 H40        -4.7084    4.2253   56.7519 H       1  ZINC000822449555    0.1500
     41 H41        -4.3232    3.1804   53.8800 H       1  ZINC000822449555    0.4100
     42 H42        -4.2388    7.1828   51.7699 H       1  ZINC000822449555    0.1600
     43 H43        -5.7016    7.2198   49.7668 H       1  ZINC000822449555    0.1600
     44 H44        -9.5829    4.2820   47.0997 H       1  ZINC000822449555    0.4800
     45 H45        -5.8315    3.3041   52.7028 H       1  ZINC000822449555    0.1700
@<TRIPOS>BOND
     1     1     2    1
     2     1    28    1
     3     1    29    1
     4     1    30    1
     5     2    13   ar
     6     2     3   ar
     7     3     4   ar
     8     4     5    1
     9     4    11   ar
    10     5    10    1
    11     5     6    1
    12     6     7    1
    13     6    31    1
    14     6    32    1
    15     7     8    1
    16     7    33    1
    17     7    34    1
    18     8     9    1
    19     9    10    1
    20     9    35    1
    21     9    36    1
    22    10    37    1
    23    10    38    1
    24    11    12   ar
    25    11    39    1
    26    12    13   ar
    27    12    40    1
    28    13    14    1
    29    14    15   am
    30    14    41    1
    31    15    16    2
    32    15    17    1
    33    17    27   ar
    34    17    18   ar
    35    18    19   ar
    36    18    42    1
    37    19    20   ar
    38    19    43    1
    39    20    21    1
    40    20    26   ar
    41    21    25    1
    42    21    22    2
    43    22    23    1
    44    23    24    1
    45    23    44    1
    46    24    25    2
    47    26    27   ar
    48    27    45    1
@<TRIPOS>SUBSTRUCTURE
     1 ZINC000822449555        1 TEMP              0 ****  ****    0 ROOT


##########                                Name:    ZINC000284209281
##########                DOCK_Rotatable_Bonds:                   8
##########                         Heavy_Atoms:                  26
##########                    Molecular_Weight:             353.424
##########                DOCK_Rotatable_Bonds:                   8
##########                       Formal_Charge:          0.00999954
##########                     HBond_Acceptors:                   7
##########                        HBond_Donors:                   1
##########                         Heavy_Atoms:                  26
##########                          Grid_Score:          -29.746119
##########                     Grid_vdw_energy:          -29.201967
##########                      Grid_es_energy:           -0.544151
##########           Internal_energy_repulsive:           12.136893

@<TRIPOS>MOLECULE
ZINC000284209281
 49 51 1 0 0
SMALL
USER_CHARGES


@<TRIPOS>ATOM
      1 O1         -9.2080    2.7024   55.3329 O.2     1  <0>        -0.5100
      2 C2         -9.0981    1.4947   55.2894 C.2     1  <0>         0.5100
      3 N3         -8.0700    0.9351   54.6214 N.am    1  <0>        -0.7000
      4 C4         -7.0885    1.7848   53.9425 C.3     1  <0>         0.1200
      5 C5         -7.6101    2.1565   52.5530 C.3     1  <0>        -0.1000
      6 C6         -6.7057    3.1931   51.9377 C.ar    1  <0>        -0.0400
      7 C7         -5.3360    3.1561   52.1504 C.ar    1  <0>        -0.1700
      8 C8         -4.5380    4.1236   51.5699 C.ar    1  <0>         0.1000
      9 N9         -5.0652    5.0734   50.8223 N.ar    1  <0>        -0.4900
     10 C10        -6.3631    5.1396   50.5985 C.ar    1  <0>         0.1000
     11 C11        -7.2226    4.2030   51.1409 C.ar    1  <0>        -0.1700
     12 C12       -10.0994    0.6279   55.9820 C.2     1  <0>         0.5100
     13 O13       -10.9051   -0.0063   55.3329 O.2     1  <0>        -0.5200
     14 N14       -10.1077    0.5506   57.3276 N.am    1  <0>        -0.5800
     15 C15       -11.0805   -0.3007   58.0288 C.3     1  <0>         0.0800
     16 C16       -10.3224   -1.1952   59.0155 C.3     1  <0>         0.0400
     17 N17        -9.4869   -0.3587   59.8874 N.3     1  <0>        -0.5300
     18 C18        -8.8766   -1.1591   60.9574 C.3     1  <0>         0.1000
     19 C19        -8.9630   -0.4057   62.2598 C.ar    1  <0>         0.1300
     20 C20       -10.1841    0.0780   62.6891 C.ar    1  <0>        -0.1500
     21 C21       -10.2529    0.7694   63.8892 C.ar    1  <0>        -0.0700
     22 C22        -9.0856    0.9488   64.6151 C.ar    1  <0>        -0.1700
     23 C23        -7.9003    0.4363   64.1222 C.ar    1  <0>         0.1000
     24 N24        -7.8733   -0.2206   62.9792 N.ar    1  <0>        -0.4800
     25 C25        -8.4623    0.3577   59.1161 C.3     1  <0>         0.0400
     26 C26        -9.1403    1.3110   58.1333 C.3     1  <0>         0.1100
     27 H27        -7.9799   -0.0302   54.5901 H       1  <0>         0.4100
     28 H28        -6.9284    2.6920   54.5252 H       1  <0>         0.0800
     29 H29        -6.1466    1.2449   53.8446 H       1  <0>         0.0800
     30 H30        -7.6268    1.2682   51.9216 H       1  <0>         0.0900
     31 H31        -8.6190    2.5599   52.6396 H       1  <0>         0.0900
     32 H32        -4.8983    2.3812   52.7623 H       1  <0>         0.1400
     33 H33        -3.4702    4.1018   51.7307 H       1  <0>         0.1600
     34 H34        -6.7584    5.9325   49.9809 H       1  <0>         0.1600
     35 H35        -8.2846    4.2624   50.9536 H       1  <0>         0.1400
     36 H36       -11.7898    0.3241   58.5716 H       1  <0>         0.0800
     37 H37       -11.6122   -0.9206   57.3068 H       1  <0>         0.1400
     38 H38       -11.0354   -1.7538   59.6219 H       1  <0>         0.0900
     39 H39        -9.6899   -1.8908   58.4639 H       1  <0>         0.0400
     40 H40        -9.4070   -2.1068   61.0499 H       1  <0>         0.0900
     41 H41        -7.8307   -1.3500   60.7168 H       1  <0>         0.0600
     42 H42       -11.0736   -0.0801   62.0973 H       1  <0>         0.1400
     43 H43       -11.1935    1.1592   64.2495 H       1  <0>         0.1400
     44 H44        -9.1020    1.4827   65.5538 H       1  <0>         0.1400
     45 H45        -6.9865    0.5721   64.6815 H       1  <0>         0.1600
     46 H46        -7.8263    0.9252   59.7953 H       1  <0>         0.1000
     47 H47        -7.8556   -0.3595   58.5630 H       1  <0>         0.0400
     48 H48        -8.3903    1.7590   57.4814 H       1  <0>         0.1000
     49 H49        -9.6648    2.0920   58.6836 H       1  <0>         0.0800
@<TRIPOS>BOND
     1     1     2    2
     2     2     3   am
     3     2    12    1
     4     3     4    1
     5     3    27    1
     6     4     5    1
     7     4    28    1
     8     4    29    1
     9     5     6    1
    10     5    30    1
    11     5    31    1
    12     6    11   ar
    13     6     7   ar
    14     7     8   ar
    15     7    32    1
    16     8     9   ar
    17     8    33    1
    18     9    10   ar
    19    10    11   ar
    20    10    34    1
    21    11    35    1
    22    12    13    2
    23    12    14   am
    24    14    26    1
    25    14    15    1
    26    15    16    1
    27    15    36    1
    28    15    37    1
    29    16    17    1
    30    16    38    1
    31    16    39    1
    32    17    18    1
    33    17    25    1
    34    18    19    1
    35    18    40    1
    36    18    41    1
    37    19    24   ar
    38    19    20   ar
    39    20    21   ar
    40    20    42    1
    41    21    22   ar
    42    21    43    1
    43    22    23   ar
    44    22    44    1
    45    23    24   ar
    46    23    45    1
    47    25    26    1
    48    25    46    1
    49    25    47    1
    50    26    48    1
    51    26    49    1
@<TRIPOS>SUBSTRUCTURE
     1 <0>         1 TEMP              0 ****  ****    0 ROOT


##########                                Name:    ZINC000373715094
##########                DOCK_Rotatable_Bonds:                   6
##########                         Heavy_Atoms:                  27
##########                    Molecular_Weight:             362.431
##########                DOCK_Rotatable_Bonds:                   6
##########                       Formal_Charge:           0.0299999
##########                     HBond_Acceptors:                   6
##########                        HBond_Donors:                   2
##########                         Heavy_Atoms:                  27
##########                          Grid_Score:          -29.728844
##########                     Grid_vdw_energy:          -28.778231
##########                      Grid_es_energy:           -0.950613
##########           Internal_energy_repulsive:            9.802243

@<TRIPOS>MOLECULE
ZINC000373715094
 49 52 1 0 0
SMALL
USER_CHARGES


@<TRIPOS>ATOM
      1 C1        -11.5006    1.1171   65.2809 C.3     1  ZINC000373715094    0.0900
      2 N2        -10.2840    0.9302   64.4863 N.am    1  ZINC000373715094   -0.6100
      3 C3         -9.3015    0.0664   64.7953 C.2     1  ZINC000373715094    0.5200
      4 O4         -9.2941   -0.6581   65.7678 O.2     1  ZINC000373715094   -0.5200
      5 C5         -8.2067    0.1293   63.7532 C.3     1  ZINC000373715094   -0.1600
      6 C6         -8.8646    0.8524   62.5552 C.3     1  ZINC000373715094   -0.1000
      7 H7         -8.1535    1.5140   62.0606 H       1  ZINC000373715094    0.1100
      8 C8         -9.4527   -0.1538   61.5639 C.3     1  ZINC000373715094    0.1300
      9 N9         -9.8247    0.5388   60.3278 N.am    1  ZINC000373715094   -0.7300
     10 C10        -9.0693    0.3945   59.2210 C.2     1  ZINC000373715094    0.5200
     11 O11        -8.0823   -0.3098   59.2480 O.2     1  ZINC000373715094   -0.5200
     12 C12        -9.4510    1.1085   57.9499 C.3     1  ZINC000373715094   -0.0600
     13 C13        -9.6712    0.0985   56.8533 C.2     1  ZINC000373715094    0.1200
     14 N14       -10.3630   -1.0007   56.9498 N.2     1  ZINC000373715094   -0.2300
     15 N15       -10.3468   -1.6873   55.7313 N.pl3   1  ZINC000373715094   -0.5100
     16 C16        -9.6036   -0.9758   54.8261 C.ar    1  ZINC000373715094    0.1300
     17 C17        -9.2568   -1.1765   53.4925 C.ar    1  ZINC000373715094   -0.1400
     18 C18        -8.4803   -0.2569   52.8460 C.ar    1  ZINC000373715094   -0.0700
     19 C19        -8.0288    0.8810   53.5028 C.ar    1  ZINC000373715094   -0.1600
     20 C20        -8.3529    1.1041   54.8098 C.ar    1  ZINC000373715094   -0.0400
     21 C21        -9.1525    0.1807   55.4917 C.ar    1  ZINC000373715094   -0.1600
     22 C22        -9.9844    1.6575   63.2472 C.3     1  ZINC000373715094    0.1800
     23 H23       -10.8664    1.7028   62.6084 H       1  ZINC000373715094    0.1000
     24 C24        -9.5032    3.0486   63.5703 C.ar    1  ZINC000373715094   -0.1000
     25 C25        -9.5920    4.0487   62.6203 C.ar    1  ZINC000373715094   -0.1000
     26 C26        -9.1505    5.3247   62.9168 C.ar    1  ZINC000373715094   -0.1200
     27 C27        -8.6207    5.6006   64.1633 C.ar    1  ZINC000373715094   -0.1100
     28 C28        -8.5329    4.6006   65.1137 C.ar    1  ZINC000373715094   -0.1200
     29 C29        -8.9782    3.3257   64.8188 C.ar    1  ZINC000373715094   -0.1100
     30 H30       -12.2709    0.4287   64.9334 H       1  ZINC000373715094    0.0600
     31 H31       -11.2830    0.9191   66.3305 H       1  ZINC000373715094    0.0800
     32 H32       -11.8529    2.1426   65.1701 H       1  ZINC000373715094    0.0700
     33 H33        -7.3580    0.7027   64.1257 H       1  ZINC000373715094    0.1100
     34 H34        -7.8939   -0.8750   63.4675 H       1  ZINC000373715094    0.1100
     35 H35        -8.7107   -0.9208   61.3415 H       1  ZINC000373715094    0.0700
     36 H36       -10.3367   -0.6191   62.0000 H       1  ZINC000373715094    0.0800
     37 H37       -10.6149    1.1011   60.3059 H       1  ZINC000373715094    0.4000
     38 H38       -10.3684    1.6742   58.1124 H       1  ZINC000373715094    0.1200
     39 H39        -8.6505    1.7895   57.6613 H       1  ZINC000373715094    0.1200
     40 H40       -10.7903   -2.5318   55.5553 H       1  ZINC000373715094    0.4400
     41 H41        -9.6007   -2.0573   52.9705 H       1  ZINC000373715094    0.1300
     42 H42        -8.2138   -0.4168   51.8116 H       1  ZINC000373715094    0.1300
     43 H43        -7.4152    1.5956   52.9743 H       1  ZINC000373715094    0.1300
     44 H44        -7.9980    1.9913   55.3133 H       1  ZINC000373715094    0.1300
     45 H45       -10.0058    3.8331   61.6464 H       1  ZINC000373715094    0.1200
     46 H46        -9.2193    6.1060   62.1742 H       1  ZINC000373715094    0.1200
     47 H47        -8.2752    6.5975   64.3947 H       1  ZINC000373715094    0.1200
     48 H48        -8.1186    4.8162   66.0875 H       1  ZINC000373715094    0.1300
     49 H49        -8.9095    2.5445   65.5612 H       1  ZINC000373715094    0.1300
@<TRIPOS>BOND
     1     1     2    1
     2     1    30    1
     3     1    31    1
     4     1    32    1
     5     2    22    1
     6     2     3   am
     7     3     4    2
     8     3     5    1
     9     5     6    1
    10     5    33    1
    11     5    34    1
    12     6     7    1
    13     6     8    1
    14     6    22    1
    15     8     9    1
    16     8    35    1
    17     8    36    1
    18     9    10   am
    19     9    37    1
    20    10    11    2
    21    10    12    1
    22    12    13    1
    23    12    38    1
    24    12    39    1
    25    13    21    1
    26    13    14    2
    27    14    15    1
    28    15    16    1
    29    15    40    1
    30    16    21   ar
    31    16    17   ar
    32    17    18   ar
    33    17    41    1
    34    18    19   ar
    35    18    42    1
    36    19    20   ar
    37    19    43    1
    38    20    21   ar
    39    20    44    1
    40    22    23    1
    41    22    24    1
    42    24    29   ar
    43    24    25   ar
    44    25    26   ar
    45    25    45    1
    46    26    27   ar
    47    26    46    1
    48    27    28   ar
    49    27    47    1
    50    28    29   ar
    51    28    48    1
    52    29    49    1
@<TRIPOS>SUBSTRUCTURE
     1 ZINC000373715094        1 TEMP              0 ****  ****    0 ROOT


##########                                Name:    ZINC000675319328
##########                DOCK_Rotatable_Bonds:                   7
##########                         Heavy_Atoms:                  26
##########                    Molecular_Weight:             363.475
##########                DOCK_Rotatable_Bonds:                   7
##########                       Formal_Charge:          -0.0200007
##########                     HBond_Acceptors:                   6
##########                        HBond_Donors:                   1
##########                         Heavy_Atoms:                  26
##########                          Grid_Score:          -29.728281
##########                     Grid_vdw_energy:          -29.371826
##########                      Grid_es_energy:           -0.356455
##########           Internal_energy_repulsive:           17.007587

@<TRIPOS>MOLECULE
ZINC000675319328
 56 58 1 0 0
SMALL
USER_CHARGES


@<TRIPOS>ATOM
      1 C1         -7.9252    0.3819   53.8556 C.3     1  ZINC000675319328   -0.1600
      2 C2         -9.3117   -0.2646   53.8700 C.3     1  ZINC000675319328    0.1600
      3 H3         -9.2163   -1.3334   53.6785 H       1  ZINC000675319328    0.0900
      4 C4        -10.1827    0.3721   52.7851 C.3     1  ZINC000675319328   -0.1200
      5 C5        -11.5177   -0.3705   52.7018 C.3     1  ZINC000675319328   -0.1200
      6 H6        -11.3797   -1.4354   52.8891 H       1  ZINC000675319328    0.0800
      7 C7        -12.5499    0.2354   53.6916 C.3     1  ZINC000675319328   -0.1500
      8 C8        -13.8801   -0.1019   52.9723 C.3     1  ZINC000675319328    0.0500
      9 O9        -13.5968    0.0441   51.5717 O.3     1  ZINC000675319328   -0.3900
     10 C10       -12.1923   -0.1362   51.3332 C.3     1  ZINC000675319328    0.0500
     11 N11        -9.9338   -0.0568   55.1800 N.am    1  ZINC000675319328   -0.7400
     12 C12       -10.3331   -1.1158   55.9119 C.2     1  ZINC000675319328    0.7000
     13 O13       -10.1768   -2.2435   55.4850 O.2     1  ZINC000675319328   -0.5900
     14 N14       -10.9054   -0.9247   57.1171 N.am    1  ZINC000675319328   -0.6200
     15 C15       -11.3322   -2.1041   57.8953 C.3     1  ZINC000675319328    0.1300
     16 C16       -10.9842   -1.9465   59.3850 C.3     1  ZINC000675319328   -0.1300
     17 C17        -9.6195   -1.3083   59.5231 C.3     1  ZINC000675319328    0.0700
     18 N18        -9.7779    0.1412   59.6292 N.3     1  ZINC000675319328   -0.5500
     19 C19        -8.7738    0.7157   60.5346 C.3     1  ZINC000675319328    0.1000
     20 C20        -9.2529    0.5942   61.9582 C.ar    1  ZINC000675319328   -0.0900
     21 C21       -10.5426    0.9680   62.2872 C.ar    1  ZINC000675319328   -0.0900
     22 C22       -10.9830    0.8570   63.5924 C.ar    1  ZINC000675319328   -0.1500
     23 C23       -10.1324    0.3707   64.5705 C.ar    1  ZINC000675319328    0.1000
     24 F24       -10.5621    0.2613   65.8468 F       1  ZINC000675319328   -0.1400
     25 C25        -8.8411   -0.0039   64.2398 C.ar    1  ZINC000675319328   -0.1500
     26 C26        -8.4044    0.1035   62.9330 C.ar    1  ZINC000675319328   -0.0700
     27 C27        -9.8307    0.8576   58.4107 C.3     1  ZINC000675319328    0.0500
     28 C28       -11.0728    0.4303   57.6020 C.3     1  ZINC000675319328    0.1100
     29 H29        -7.3046   -0.0717   54.6284 H       1  ZINC000675319328    0.0600
     30 H30        -7.4623    0.2274   52.8809 H       1  ZINC000675319328    0.0700
     31 H31        -8.0206    1.4507   54.0471 H       1  ZINC000675319328    0.0500
     32 H32       -10.3636    1.4183   53.0320 H       1  ZINC000675319328    0.0700
     33 H33        -9.6710    0.3086   51.8248 H       1  ZINC000675319328    0.0900
     34 H34       -12.4947   -0.2527   54.6645 H       1  ZINC000675319328    0.0800
     35 H35       -12.4171    1.3131   53.7868 H       1  ZINC000675319328    0.0800
     36 H36       -14.1803   -1.1262   53.1928 H       1  ZINC000675319328    0.0600
     37 H37       -14.6613    0.5955   53.2750 H       1  ZINC000675319328    0.0900
     38 H38       -11.7784    0.7586   50.8681 H       1  ZINC000675319328    0.0700
     39 H39       -12.0351   -0.9980   50.6845 H       1  ZINC000675319328    0.0700
     40 H40       -10.0584    0.8427   55.5206 H       1  ZINC000675319328    0.3900
     41 H41       -12.4101   -2.2288   57.7920 H       1  ZINC000675319328    0.0600
     42 H42       -10.8323   -2.9901   57.5038 H       1  ZINC000675319328    0.0900
     43 H43       -11.7304   -1.3152   59.8672 H       1  ZINC000675319328    0.0800
     44 H44       -10.9762   -2.9267   59.8615 H       1  ZINC000675319328    0.0800
     45 H45        -9.1288   -1.6878   60.4193 H       1  ZINC000675319328    0.0700
     46 H46        -9.0158   -1.5459   58.6473 H       1  ZINC000675319328    0.0400
     47 H47        -7.8323    0.1783   60.4209 H       1  ZINC000675319328    0.0900
     48 H48        -8.6236    1.7673   60.2903 H       1  ZINC000675319328    0.0400
     49 H49       -11.2060    1.3473   61.5240 H       1  ZINC000675319328    0.1300
     50 H50       -11.9904    1.1498   63.8493 H       1  ZINC000675319328    0.1400
     51 H51        -8.1765   -0.3830   65.0020 H       1  ZINC000675319328    0.1400
     52 H52        -7.3974   -0.1889   62.6747 H       1  ZINC000675319328    0.1300
     53 H53        -9.8844    1.9258   58.6211 H       1  ZINC000675319328    0.0900
     54 H54        -8.9324    0.6497   57.8295 H       1  ZINC000675319328    0.0300
     55 H55       -11.2028    1.1030   56.7542 H       1  ZINC000675319328    0.0700
     56 H56       -11.9551    0.4775   58.2402 H       1  ZINC000675319328    0.0900
@<TRIPOS>BOND
     1     1     2    1
     2     1    29    1
     3     1    30    1
     4     1    31    1
     5     2     3    1
     6     2     4    1
     7     2    11    1
     8     4     5    1
     9     4    32    1
    10     4    33    1
    11     5     6    1
    12     5    10    1
    13     5     7    1
    14     7     8    1
    15     7    34    1
    16     7    35    1
    17     8     9    1
    18     8    36    1
    19     8    37    1
    20     9    10    1
    21    10    38    1
    22    10    39    1
    23    11    12   am
    24    11    40    1
    25    12    13    2
    26    12    14   am
    27    14    28    1
    28    14    15    1
    29    15    16    1
    30    15    41    1
    31    15    42    1
    32    16    17    1
    33    16    43    1
    34    16    44    1
    35    17    18    1
    36    17    45    1
    37    17    46    1
    38    18    19    1
    39    18    27    1
    40    19    20    1
    41    19    47    1
    42    19    48    1
    43    20    26   ar
    44    20    21   ar
    45    21    22   ar
    46    21    49    1
    47    22    23   ar
    48    22    50    1
    49    23    24    1
    50    23    25   ar
    51    25    26   ar
    52    25    51    1
    53    26    52    1
    54    27    28    1
    55    27    53    1
    56    27    54    1
    57    28    55    1
    58    28    56    1
@<TRIPOS>SUBSTRUCTURE
     1 ZINC000675319328        1 TEMP              0 ****  ****    0 ROOT


##########                                Name:    ZINC000768148687
##########                DOCK_Rotatable_Bonds:                   8
##########                         Heavy_Atoms:                  25
##########                    Molecular_Weight:             371.307
##########                DOCK_Rotatable_Bonds:                   8
##########                       Formal_Charge:         2.98023e-08
##########                     HBond_Acceptors:                  11
##########                        HBond_Donors:                   0
##########                         Heavy_Atoms:                  25
##########                          Grid_Score:          -29.726110
##########                     Grid_vdw_energy:          -29.261345
##########                      Grid_es_energy:           -0.464765
##########           Internal_energy_repulsive:           10.949790

@<TRIPOS>MOLECULE
ZINC000768148687
 43 44 1 0 0
SMALL
USER_CHARGES


@<TRIPOS>ATOM
      1 C1        -10.6866   -0.5836   52.4689 C.3     1  ZINC000768148687   -0.1800
      2 C2         -9.5378   -1.1864   53.2799 C.3     1  ZINC000768148687    0.1100
      3 N3         -9.8434   -1.0856   54.7092 N.pl3   1  ZINC000768148687   -0.3100
      4 N4        -10.5636   -2.0221   55.4591 N.2     1  ZINC000768148687   -0.2000
      5 C5        -10.6413   -1.6063   56.6929 C.2     1  ZINC000768148687    0.0200
      6 C6        -11.3326   -2.3196   57.8261 C.3     1  ZINC000768148687    0.5500
      7 F7        -12.0418   -3.4158   57.3235 F       1  ZINC000768148687   -0.1600
      8 F8        -10.3789   -2.7644   58.7480 F       1  ZINC000768148687   -0.1600
      9 F9        -12.2186   -1.4412   58.4588 F       1  ZINC000768148687   -0.1500
     10 C10        -9.9634   -0.3691   56.7807 C.2     1  ZINC000768148687   -0.1800
     11 C11        -9.8031    0.4565   57.9898 C.2     1  ZINC000768148687    0.5300
     12 O12       -10.7461    1.0885   58.4235 O.2     1  ZINC000768148687   -0.4700
     13 O13        -8.6106    0.5110   58.6153 O.3     1  ZINC000768148687   -0.3400
     14 C14        -8.5862    1.1128   59.9364 C.3     1  ZINC000768148687    0.0200
     15 C15        -8.8273    0.0331   60.9932 C.3     1  ZINC000768148687    0.0600
     16 N16        -8.7623    0.6347   62.3317 N.3     1  ZINC000768148687   -0.5300
     17 C17        -8.3695   -0.3617   63.3388 C.3     1  ZINC000768148687    0.0100
     18 C18        -8.2564    0.3190   64.7054 C.3     1  ZINC000768148687    0.0600
     19 O19        -9.5005    0.9485   65.0233 O.3     1  ZINC000768148687   -0.3800
     20 C20        -9.9132    1.9254   64.0637 C.3     1  ZINC000768148687    0.0600
     21 C21       -10.0432    1.2609   62.6906 C.3     1  ZINC000768148687    0.0100
     22 C22        -9.4747   -0.0823   55.5209 C.2     1  ZINC000768148687    0.0600
     23 C23        -8.6821    1.1377   55.1280 C.3     1  ZINC000768148687    0.3400
     24 F24        -8.9011    2.1566   56.0613 F       1  ZINC000768148687   -0.1700
     25 F25        -7.3203    0.8189   55.0967 F       1  ZINC000768148687   -0.1800
     26 H26       -10.4591   -0.6587   51.4056 H       1  ZINC000768148687    0.0900
     27 H27       -11.6068   -1.1273   52.6828 H       1  ZINC000768148687    0.0700
     28 H28       -10.8123    0.4644   52.7406 H       1  ZINC000768148687    0.0700
     29 H29        -9.4120   -2.2345   53.0084 H       1  ZINC000768148687    0.1100
     30 H30        -8.6176   -0.6427   53.0660 H       1  ZINC000768148687    0.1200
     31 H31        -7.6147    1.5770   60.1063 H       1  ZINC000768148687    0.0800
     32 H32        -9.3676    1.8696   60.0054 H       1  ZINC000768148687    0.0800
     33 H33        -9.8114   -0.4104   60.8416 H       1  ZINC000768148687    0.1100
     34 H34        -8.0632   -0.7392   60.9045 H       1  ZINC000768148687    0.0900
     35 H35        -9.1224   -1.1485   63.3852 H       1  ZINC000768148687    0.0500
     36 H36        -7.4066   -0.7941   63.0666 H       1  ZINC000768148687    0.0900
     37 H37        -8.0211   -0.4266   65.4650 H       1  ZINC000768148687    0.1000
     38 H38        -7.4664    1.0693   64.6739 H       1  ZINC000768148687    0.0600
     39 H39       -10.8762    2.3416   64.3592 H       1  ZINC000768148687    0.1000
     40 H40        -9.1714    2.7224   64.0136 H       1  ZINC000768148687    0.0600
     41 H41       -10.3020    2.0131   61.9454 H       1  ZINC000768148687    0.0800
     42 H42       -10.8228    0.5000   62.7267 H       1  ZINC000768148687    0.0700
     43 H43        -8.9991    1.4747   54.1411 H       1  ZINC000768148687    0.1500
@<TRIPOS>BOND
     1     1     2    1
     2     1    26    1
     3     1    27    1
     4     1    28    1
     5     2     3    1
     6     2    29    1
     7     2    30    1
     8     3    22    1
     9     3     4    1
    10     4     5    2
    11     5     6    1
    12     5    10    1
    13     6     7    1
    14     6     8    1
    15     6     9    1
    16    10    11    1
    17    10    22    2
    18    11    12    2
    19    11    13    1
    20    13    14    1
    21    14    15    1
    22    14    31    1
    23    14    32    1
    24    15    16    1
    25    15    33    1
    26    15    34    1
    27    16    21    1
    28    16    17    1
    29    17    18    1
    30    17    35    1
    31    17    36    1
    32    18    19    1
    33    18    37    1
    34    18    38    1
    35    19    20    1
    36    20    21    1
    37    20    39    1
    38    20    40    1
    39    21    41    1
    40    21    42    1
    41    22    23    1
    42    23    24    1
    43    23    25    1
    44    23    43    1
@<TRIPOS>SUBSTRUCTURE
     1 ZINC000768148687        1 TEMP              0 ****  ****    0 ROOT


##########                                Name:    ZINC000949401225
##########                DOCK_Rotatable_Bonds:                   7
##########                         Heavy_Atoms:                  24
##########                    Molecular_Weight:             332.403
##########                DOCK_Rotatable_Bonds:                   7
##########                       Formal_Charge:                0.03
##########                     HBond_Acceptors:                   7
##########                        HBond_Donors:                   1
##########                         Heavy_Atoms:                  24
##########                          Grid_Score:          -29.716166
##########                     Grid_vdw_energy:          -28.834820
##########                      Grid_es_energy:           -0.881345
##########           Internal_energy_repulsive:            8.610564

@<TRIPOS>MOLECULE
ZINC000949401225
 48 50 1 0 0
SMALL
USER_CHARGES


@<TRIPOS>ATOM
      1 C1         -8.6681   -0.2351   62.4263 C.3     1  ZINC000949401225    0.0700
      2 N2         -8.9289    0.1805   61.0459 N.pl3   1  ZINC000949401225   -0.4500
      3 C3         -8.7597    1.4472   60.5678 C.2     1  ZINC000949401225   -0.0100
      4 C4         -9.0918    1.4680   59.2647 C.2     1  ZINC000949401225   -0.1700
      5 C5         -9.4967    0.1008   58.9204 C.2     1  ZINC000949401225   -0.2400
      6 C6         -9.9487   -0.3838   57.6053 C.2     1  ZINC000949401225    0.5900
      7 O7        -10.2092   -1.5613   57.4477 O.2     1  ZINC000949401225   -0.5500
      8 N8        -10.0734    0.4776   56.5763 N.am    1  ZINC000949401225   -0.7300
      9 C9        -10.5213   -0.0048   55.2675 C.3     1  ZINC000949401225    0.1200
     10 C10        -9.3149   -0.4956   54.4645 C.3     1  ZINC000949401225    0.1200
     11 H11        -8.5263   -0.9040   55.0964 H       1  ZINC000949401225    0.1000
     12 C12        -9.6928   -1.4098   53.2908 C.3     1  ZINC000949401225   -0.1500
     13 C13        -8.5769   -0.6433   52.5673 C.3     1  ZINC000949401225    0.1000
     14 N14        -8.8289    0.4831   53.4803 N.am    1  ZINC000949401225   -0.6400
     15 C15        -8.6812    1.8220   53.4335 C.2     1  ZINC000949401225    0.5500
     16 O16        -8.9933    2.5003   54.3893 O.2     1  ZINC000949401225   -0.5200
     17 C17        -8.1282    2.4761   52.1937 C.3     1  ZINC000949401225   -0.1400
     18 C18        -7.0345    3.4713   52.5867 C.3     1  ZINC000949401225    0.1500
     19 H19        -7.4594    4.2856   53.1736 H       1  ZINC000949401225    0.0900
     20 C20        -5.9247    2.7564   53.3892 C.3     1  ZINC000949401225   -0.1200
     21 C21        -4.6576    3.4987   52.9050 C.3     1  ZINC000949401225   -0.1600
     22 C22        -5.0376    4.0304   51.5406 C.2     1  ZINC000949401225    0.5200
     23 O23        -4.2520    4.4272   50.7063 O.2     1  ZINC000949401225   -0.5300
     24 N24        -6.3742    4.0002   51.3874 N.am    1  ZINC000949401225   -0.6200
     25 C25        -7.0777    4.4363   50.1787 C.3     1  ZINC000949401225    0.0900
     26 C26        -9.3643   -0.6344   60.0662 C.2     1  ZINC000949401225    0.0800
     27 H27        -7.6310   -0.5574   62.5189 H       1  ZINC000949401225    0.0800
     28 H28        -8.8493    0.6035   63.0986 H       1  ZINC000949401225    0.0900
     29 H29        -9.3301   -1.0605   62.6884 H       1  ZINC000949401225    0.0900
     30 H30        -8.4154    2.2946   61.1420 H       1  ZINC000949401225    0.1700
     31 H31        -9.0658    2.3214   58.6035 H       1  ZINC000949401225    0.1500
     32 H32        -9.8667    1.4168   56.7022 H       1  ZINC000949401225    0.4000
     33 H33       -11.2251   -0.8257   55.4042 H       1  ZINC000949401225    0.0700
     34 H34       -11.0103    0.8071   54.7289 H       1  ZINC000949401225    0.0900
     35 H35        -9.4749   -2.4645   53.4578 H       1  ZINC000949401225    0.1000
     36 H36       -10.6903   -1.2319   52.8890 H       1  ZINC000949401225    0.1000
     37 H37        -7.5909   -1.0907   52.6933 H       1  ZINC000949401225    0.0900
     38 H38        -8.8088   -0.4193   51.5261 H       1  ZINC000949401225    0.0800
     39 H39        -7.7074    1.7141   51.5377 H       1  ZINC000949401225    0.1000
     40 H40        -8.9281    3.0025   51.6730 H       1  ZINC000949401225    0.1000
     41 H41        -6.0701    2.8912   54.4610 H       1  ZINC000949401225    0.1000
     42 H42        -5.8785    1.6980   53.1334 H       1  ZINC000949401225    0.0800
     43 H43        -4.4148    4.3194   53.5801 H       1  ZINC000949401225    0.1100
     44 H44        -3.8181    2.8081   52.8251 H       1  ZINC000949401225    0.1000
     45 H45        -6.3509    4.7015   49.4110 H       1  ZINC000949401225    0.0800
     46 H46        -7.7114    3.6272   49.8153 H       1  ZINC000949401225    0.0600
     47 H47        -7.6944    5.3046   50.4106 H       1  ZINC000949401225    0.0600
     48 H48        -9.5788   -1.6878   60.1693 H       1  ZINC000949401225    0.1800
@<TRIPOS>BOND
     1     1     2    1
     2     1    27    1
     3     1    28    1
     4     1    29    1
     5     2    26    1
     6     2     3    1
     7     3     4    2
     8     3    30    1
     9     4     5    1
    10     4    31    1
    11     5     6    1
    12     5    26    2
    13     6     7    2
    14     6     8   am
    15     8     9    1
    16     8    32    1
    17     9    10    1
    18     9    33    1
    19     9    34    1
    20    10    11    1
    21    10    14    1
    22    10    12    1
    23    12    13    1
    24    12    35    1
    25    12    36    1
    26    13    14    1
    27    13    37    1
    28    13    38    1
    29    14    15   am
    30    15    16    2
    31    15    17    1
    32    17    18    1
    33    17    39    1
    34    17    40    1
    35    18    19    1
    36    18    24    1
    37    18    20    1
    38    20    21    1
    39    20    41    1
    40    20    42    1
    41    21    22    1
    42    21    43    1
    43    21    44    1
    44    22    23    2
    45    22    24   am
    46    24    25    1
    47    25    45    1
    48    25    46    1
    49    25    47    1
    50    26    48    1
@<TRIPOS>SUBSTRUCTURE
     1 ZINC000949401225        1 TEMP              0 ****  ****    0 ROOT


##########                                Name:    ZINC001362587626
##########                DOCK_Rotatable_Bonds:                   9
##########                         Heavy_Atoms:                  25
##########                    Molecular_Weight:             346.346
##########                DOCK_Rotatable_Bonds:                   9
##########                       Formal_Charge:        -4.02331e-07
##########                     HBond_Acceptors:                  10
##########                        HBond_Donors:                   2
##########                         Heavy_Atoms:                  25
##########                          Grid_Score:          -29.696676
##########                     Grid_vdw_energy:          -29.414148
##########                      Grid_es_energy:           -0.282528
##########           Internal_energy_repulsive:            5.456491

@<TRIPOS>MOLECULE
ZINC001362587626
 43 45 1 0 0
SMALL
USER_CHARGES


@<TRIPOS>ATOM
      1 C1        -13.2619   -1.5791   55.3812 C.3     1  ZINC001362587626   -0.1600
      2 C2        -12.1752   -0.5111   55.5195 C.3     1  ZINC001362587626    0.1300
      3 H3        -12.5731    0.4546   55.2077 H       1  ZINC001362587626    0.1200
      4 N4        -11.0326   -0.8645   54.6733 N.am    1  ZINC001362587626   -0.7100
      5 C5        -10.9963   -0.4619   53.3876 C.2     1  ZINC001362587626    0.5100
      6 O6        -11.9085    0.1943   52.9315 O.2     1  ZINC001362587626   -0.5000
      7 C7         -9.8217   -0.8270   52.5167 C.3     1  ZINC001362587626    0.1000
      8 N8         -8.7343    0.1295   52.7373 N.pl3   1  ZINC001362587626   -0.3100
      9 C9         -8.6496    1.3742   52.2320 C.2     1  ZINC001362587626    0.1600
     10 N10        -7.5259    1.8840   52.6739 N.2     1  ZINC001362587626   -0.3000
     11 N11        -6.9504    0.9987   53.4121 N.2     1  ZINC001362587626   -0.0700
     12 N12        -7.6806   -0.0607   53.4571 N.2     1  ZINC001362587626   -0.0700
     13 C13       -11.7299   -0.4307   56.9568 C.2     1  ZINC001362587626    0.5100
     14 O14       -12.3667    0.2265   57.7531 O.2     1  ZINC001362587626   -0.5200
     15 N15       -10.6243   -1.0890   57.3577 N.am    1  ZINC001362587626   -0.6600
     16 C16       -10.2105   -1.0143   58.6942 C.ar    1  ZINC001362587626    0.1000
     17 C17       -10.9420   -1.6558   59.6847 C.ar    1  ZINC001362587626   -0.1000
     18 C18       -10.5333   -1.5821   61.0016 C.ar    1  ZINC001362587626   -0.1900
     19 C19        -9.3924   -0.8669   61.3352 C.ar    1  ZINC001362587626    0.1200
     20 O20        -8.9908   -0.7944   62.6322 O.3     1  ZINC001362587626   -0.2800
     21 C21        -8.9440    0.5049   63.2252 C.3     1  ZINC001362587626    0.0100
     22 C22       -10.3073    1.0023   63.7418 C.3     1  ZINC001362587626    0.0200
     23 O23        -9.9215    0.4070   64.9970 O.3     1  ZINC001362587626   -0.3700
     24 C24        -8.5128    0.4986   64.7039 C.3     1  ZINC001362587626    0.0400
     25 C25        -8.6608   -0.2261   60.3460 C.ar    1  ZINC001362587626   -0.1300
     26 C26        -9.0654   -0.3034   59.0280 C.ar    1  ZINC001362587626   -0.0800
     27 H27       -12.8640   -2.5449   55.6928 H       1  ZINC001362587626    0.0700
     28 H28       -14.1120   -1.3161   56.0107 H       1  ZINC001362587626    0.0800
     29 H29       -13.5841   -1.6372   54.3415 H       1  ZINC001362587626    0.0800
     30 H30       -10.3024   -1.3883   55.0384 H       1  ZINC001362587626    0.4100
     31 H31        -9.4798   -1.8306   52.7698 H       1  ZINC001362587626    0.1500
     32 H32       -10.1233   -0.7991   51.4696 H       1  ZINC001362587626    0.1400
     33 H33        -9.3679    1.8586   51.5871 H       1  ZINC001362587626    0.2400
     34 H34       -10.1152   -1.6146   56.7211 H       1  ZINC001362587626    0.4100
     35 H35       -11.8306   -2.2120   59.4253 H       1  ZINC001362587626    0.1300
     36 H36       -11.1023   -2.0810   61.7723 H       1  ZINC001362587626    0.1400
     37 H37        -8.4105    1.2330   62.6142 H       1  ZINC001362587626    0.0900
     38 H38       -10.3959    2.0881   63.7773 H       1  ZINC001362587626    0.1000
     39 H39       -11.1615    0.5183   63.2683 H       1  ZINC001362587626    0.1000
     40 H40        -7.9438   -0.3847   64.9937 H       1  ZINC001362587626    0.1000
     41 H41        -8.0535    1.4306   65.0333 H       1  ZINC001362587626    0.1000
     42 H42        -7.7726    0.3305   60.6064 H       1  ZINC001362587626    0.1400
     43 H43        -8.4955    0.1952   58.2579 H       1  ZINC001362587626    0.1500
@<TRIPOS>BOND
     1     1     2    1
     2     1    27    1
     3     1    28    1
     4     1    29    1
     5     2     3    1
     6     2     4    1
     7     2    13    1
     8     4     5   am
     9     4    30    1
    10     5     6    2
    11     5     7    1
    12     7     8    1
    13     7    31    1
    14     7    32    1
    15     8    12    1
    16     8     9    1
    17     9    10    2
    18     9    33    1
    19    10    11    1
    20    11    12    2
    21    13    14    2
    22    13    15   am
    23    15    16    1
    24    15    34    1
    25    16    26   ar
    26    16    17   ar
    27    17    18   ar
    28    17    35    1
    29    18    19   ar
    30    18    36    1
    31    19    20    1
    32    19    25   ar
    33    20    21    1
    34    21    24    1
    35    21    22    1
    36    21    37    1
    37    22    23    1
    38    22    38    1
    39    22    39    1
    40    23    24    1
    41    24    40    1
    42    24    41    1
    43    25    26   ar
    44    25    42    1
    45    26    43    1
@<TRIPOS>SUBSTRUCTURE
     1 ZINC001362587626        1 TEMP              0 ****  ****    0 ROOT


##########                                Name:    ZINC000797321835
##########                DOCK_Rotatable_Bonds:                   4
##########                         Heavy_Atoms:                  22
##########                    Molecular_Weight:             381.253
##########                DOCK_Rotatable_Bonds:                   4
##########                       Formal_Charge:           0.0200001
##########                     HBond_Acceptors:                   7
##########                        HBond_Donors:                   1
##########                         Heavy_Atoms:                  22
##########                          Grid_Score:          -29.681131
##########                     Grid_vdw_energy:          -27.961357
##########                      Grid_es_energy:           -1.719775
##########           Internal_energy_repulsive:            3.918490

@<TRIPOS>MOLECULE
ZINC000797321835
 35 37 1 0 0
SMALL
USER_CHARGES


@<TRIPOS>ATOM
      1 C1        -12.6062   -1.9472   59.8203 C.3     1  ZINC000797321835    0.1000
      2 N2        -13.4780   -2.7657   58.9741 N.am    1  ZINC000797321835   -0.6000
      3 C3        -14.7518   -3.0747   59.2722 C.2     1  ZINC000797321835    0.5200
      4 O4        -15.3352   -2.7232   60.2757 O.2     1  ZINC000797321835   -0.5200
      5 C5        -15.3519   -3.9242   58.1737 C.3     1  ZINC000797321835   -0.1500
      6 C6        -14.3891   -3.7342   56.9786 C.3     1  ZINC000797321835   -0.1200
      7 C7        -13.0748   -3.3488   57.6890 C.3     1  ZINC000797321835    0.1200
      8 H8        -12.4638   -4.2352   57.8590 H       1  ZINC000797321835    0.1100
      9 C9        -12.3134   -2.3415   56.8663 C.2     1  ZINC000797321835    0.4900
     10 O10       -12.8985   -1.4124   56.3513 O.2     1  ZINC000797321835   -0.4400
     11 N11       -10.9820   -2.4733   56.7028 N.am    1  ZINC000797321835   -0.6500
     12 C12       -10.2773   -1.5411   55.9414 C.ar    1  ZINC000797321835    0.3000
     13 C13        -9.7344   -0.4095   56.5511 C.ar    1  ZINC000797321835   -0.1400
     14 C14        -9.0430    0.4879   55.7577 C.ar    1  ZINC000797321835   -0.0800
     15 C15        -8.9311    0.2043   54.3901 C.ar    1  ZINC000797321835    0.1100
     16 C16        -8.2029    1.1292   53.4984 C.2     1  ZINC000797321835   -0.1400
     17 C17        -6.9315    1.5422   53.6758 C.2     1  ZINC000797321835   -0.0900
     18 C18        -6.4664    2.4084   52.7088 C.2     1  ZINC000797321835   -0.0900
     19 C19        -7.3452    2.7059   51.7451 C.2     1  ZINC000797321835   -0.2000
     20 Br20       -7.0094    3.8595   50.2848 Br      1  ZINC000797321835    0.0200
     21 S21        -8.8572    1.8566   52.0368 S.3     1  ZINC000797321835    0.1900
     22 N22        -9.4823   -0.9004   53.8989 N.ar    1  ZINC000797321835   -0.1900
     23 N23       -10.1186   -1.7325   54.6407 N.ar    1  ZINC000797321835   -0.2200
     24 H24       -12.7134   -0.8980   59.5449 H       1  ZINC000797321835    0.0700
     25 H25       -12.8864   -2.0789   60.8654 H       1  ZINC000797321835    0.0800
     26 H26       -11.5701   -2.2556   59.6802 H       1  ZINC000797321835    0.0700
     27 H27       -15.3836   -4.9712   58.4753 H       1  ZINC000797321835    0.1100
     28 H28       -16.3505   -3.5692   57.9193 H       1  ZINC000797321835    0.1100
     29 H29       -14.2752   -4.6622   56.4182 H       1  ZINC000797321835    0.1100
     30 H30       -14.7282   -2.9272   56.3292 H       1  ZINC000797321835    0.0900
     31 H31       -10.5140   -3.2163   57.1147 H       1  ZINC000797321835    0.4200
     32 H32        -9.8508   -0.2392   57.6112 H       1  ZINC000797321835    0.1600
     33 H33        -8.6034    1.3798   56.1791 H       1  ZINC000797321835    0.1500
     34 H34        -6.3254    1.2202   54.5097 H       1  ZINC000797321835    0.1600
     35 H35        -5.4668    2.8166   52.7283 H       1  ZINC000797321835    0.1600
@<TRIPOS>BOND
     1     1     2    1
     2     1    24    1
     3     1    25    1
     4     1    26    1
     5     2     7    1
     6     2     3   am
     7     3     4    2
     8     3     5    1
     9     5     6    1
    10     5    27    1
    11     5    28    1
    12     6     7    1
    13     6    29    1
    14     6    30    1
    15     7     8    1
    16     7     9    1
    17     9    10    2
    18     9    11   am
    19    11    12    1
    20    11    31    1
    21    12    23   ar
    22    12    13   ar
    23    13    14   ar
    24    13    32    1
    25    14    15   ar
    26    14    33    1
    27    15    16    1
    28    15    22   ar
    29    16    21    1
    30    16    17    2
    31    17    18    1
    32    17    34    1
    33    18    19    2
    34    18    35    1
    35    19    20    1
    36    19    21    1
    37    22    23   ar
@<TRIPOS>SUBSTRUCTURE
     1 ZINC000797321835        1 TEMP              0 ****  ****    0 ROOT


##########                                Name:    ZINC000301324012
##########                DOCK_Rotatable_Bonds:                   7
##########                         Heavy_Atoms:                  28
##########                    Molecular_Weight:               415.9
##########                DOCK_Rotatable_Bonds:                   7
##########                       Formal_Charge:          -0.0100002
##########                     HBond_Acceptors:                   8
##########                        HBond_Donors:                   2
##########                         Heavy_Atoms:                  28
##########                          Grid_Score:          -29.655502
##########                     Grid_vdw_energy:          -29.203707
##########                      Grid_es_energy:           -0.451796
##########           Internal_energy_repulsive:           11.633595

@<TRIPOS>MOLECULE
ZINC000301324012
 46 48 1 0 0
SMALL
USER_CHARGES


@<TRIPOS>ATOM
      1 C1        -12.5060   -2.4241   56.8089 C.3     1  ZINC000301324012   -0.1600
      2 C2        -11.0209   -2.3244   57.1632 C.3     1  ZINC000301324012    0.2000
      3 H3        -10.5335   -3.2774   56.9572 H       1  ZINC000301324012    0.1100
      4 N4        -10.3962   -1.2722   56.3577 N.am    1  ZINC000301324012   -0.7100
      5 C5         -9.8867   -1.5650   55.1448 C.2     1  ZINC000301324012    0.5500
      6 O6         -9.9469   -2.7017   54.7185 O.2     1  ZINC000301324012   -0.5300
      7 C7         -9.2547   -0.5034   54.3326 C.ar    1  ZINC000301324012   -0.0700
      8 C8         -8.9752    0.7407   54.9002 C.ar    1  ZINC000301324012   -0.1100
      9 C9         -8.3850    1.7267   54.1371 C.ar    1  ZINC000301324012   -0.0200
     10 C10        -8.0705    1.4847   52.8116 C.ar    1  ZINC000301324012   -0.6600
     11 S11        -7.3171    2.7497   51.8438 S.o2    1  ZINC000301324012    2.6900
     12 O12        -6.2890    3.3115   52.6480 O.2     1  ZINC000301324012   -0.9400
     13 O13        -7.0800    2.1860   50.5612 O.2     1  ZINC000301324012   -0.9400
     14 N14        -8.4468    3.9413   51.6293 N.am    1  ZINC000301324012   -1.0500
     15 C15        -9.6540    3.6522   50.9874 C.ar    1  ZINC000301324012    0.1600
     16 C16       -10.7138    3.1164   51.7068 C.ar    1  ZINC000301324012   -0.1600
     17 C17       -11.9060    2.8318   51.0693 C.ar    1  ZINC000301324012   -0.0800
     18 C18       -12.0449    3.0793   49.7162 C.ar    1  ZINC000301324012   -0.1200
     19 C19       -10.9917    3.6130   48.9957 C.ar    1  ZINC000301324012   -0.0900
     20 C20        -9.7986    3.9059   49.6281 C.ar    1  ZINC000301324012   -0.0600
     21 Cl21       -8.4770    4.5757   48.7235 Cl      1  ZINC000301324012   -0.0600
     22 C22        -8.3444    0.2534   52.2430 C.ar    1  ZINC000301324012   -0.0200
     23 C23        -8.9297   -0.7429   52.9966 C.ar    1  ZINC000301324012   -0.0800
     24 C24       -10.8746   -1.9912   58.6256 C.ar    1  ZINC000301324012    0.1200
     25 C25        -9.7557   -1.3077   59.0617 C.ar    1  ZINC000301324012   -0.1600
     26 C26        -9.6310   -1.0056   60.4094 C.ar    1  ZINC000301324012   -0.0700
     27 C27       -10.6412   -1.4043   61.2711 C.ar    1  ZINC000301324012   -0.1700
     28 C28       -11.7312   -2.0847   60.7620 C.ar    1  ZINC000301324012    0.1100
     29 N29       -11.8188   -2.3506   59.4734 N.ar    1  ZINC000301324012   -0.4900
     30 H30       -12.9707   -3.2070   57.4082 H       1  ZINC000301324012    0.0700
     31 H31       -12.9933   -1.4711   57.0148 H       1  ZINC000301324012    0.0600
     32 H32       -12.6117   -2.6651   55.7511 H       1  ZINC000301324012    0.0700
     33 H33       -10.3491   -0.3649   56.6974 H       1  ZINC000301324012    0.4100
     34 H34        -9.2210    0.9311   55.9346 H       1  ZINC000301324012    0.1400
     35 H35        -8.1682    2.6898   54.5751 H       1  ZINC000301324012    0.1500
     36 H36        -8.2705    4.8400   51.9491 H       1  ZINC000301324012    0.4300
     37 H37       -10.6062    2.9221   52.7637 H       1  ZINC000301324012    0.1700
     38 H38       -12.7305    2.4150   51.6287 H       1  ZINC000301324012    0.1400
     39 H39       -12.9779    2.8550   49.2205 H       1  ZINC000301324012    0.1400
     40 H40       -11.1036    3.8051   47.9389 H       1  ZINC000301324012    0.1400
     41 H41        -8.0960    0.0707   51.2079 H       1  ZINC000301324012    0.1500
     42 H42        -9.1426   -1.7038   52.5516 H       1  ZINC000301324012    0.1500
     43 H43        -8.9877   -1.0129   58.3620 H       1  ZINC000301324012    0.1400
     44 H44        -8.7673   -0.4727   60.7789 H       1  ZINC000301324012    0.1400
     45 H45       -10.5770   -1.1862   62.3269 H       1  ZINC000301324012    0.1400
     46 H46       -12.5222   -2.3991   61.4268 H       1  ZINC000301324012    0.1600
@<TRIPOS>BOND
     1     1     2    1
     2     1    30    1
     3     1    31    1
     4     1    32    1
     5     2     3    1
     6     2     4    1
     7     2    24    1
     8     4     5   am
     9     4    33    1
    10     5     6    2
    11     5     7    1
    12     7    23   ar
    13     7     8   ar
    14     8     9   ar
    15     8    34    1
    16     9    10   ar
    17     9    35    1
    18    10    11    1
    19    10    22   ar
    20    11    12    2
    21    11    13    2
    22    11    14   am
    23    14    15    1
    24    14    36    1
    25    15    20   ar
    26    15    16   ar
    27    16    17   ar
    28    16    37    1
    29    17    18   ar
    30    17    38    1
    31    18    19   ar
    32    18    39    1
    33    19    20   ar
    34    19    40    1
    35    20    21    1
    36    22    23   ar
    37    22    41    1
    38    23    42    1
    39    24    29   ar
    40    24    25   ar
    41    25    26   ar
    42    25    43    1
    43    26    27   ar
    44    26    44    1
    45    27    28   ar
    46    27    45    1
    47    28    29   ar
    48    28    46    1
@<TRIPOS>SUBSTRUCTURE
     1 ZINC000301324012        1 TEMP              0 ****  ****    0 ROOT


##########                                Name:    ZINC001120957943
##########                DOCK_Rotatable_Bonds:                   4
##########                         Heavy_Atoms:                  27
##########                    Molecular_Weight:             396.802
##########                DOCK_Rotatable_Bonds:                   4
##########                       Formal_Charge:          -0.0199996
##########                     HBond_Acceptors:                  10
##########                        HBond_Donors:                   0
##########                         Heavy_Atoms:                  27
##########                          Grid_Score:          -29.654726
##########                     Grid_vdw_energy:          -29.470695
##########                      Grid_es_energy:           -0.184030
##########           Internal_energy_repulsive:            8.022886

@<TRIPOS>MOLECULE
ZINC001120957943
 43 46 1 0 0
SMALL
USER_CHARGES


@<TRIPOS>ATOM
      1 C1          5.0688    2.4149   54.9642 C.3     1  ZINC001120957943    0.0900
      2 N2          3.6522    2.4134   54.5907 N.pl3   1  ZINC001120957943   -0.6000
      3 C3          2.7131    3.3055   55.2751 C.3     1  ZINC001120957943    0.2200
      4 C4          2.5778    2.8830   56.7152 C.2     1  ZINC001120957943    0.1600
      5 N5          3.5127    2.3522   57.4611 N.2     1  ZINC001120957943   -0.2500
      6 N6          3.0475    2.1162   58.6399 N.2     1  ZINC001120957943   -0.2800
      7 C7          1.8034    2.4832   58.6961 C.2     1  ZINC001120957943    0.1700
      8 C8          0.8509    2.3987   59.8620 C.3     1  ZINC001120957943   -0.0300
      9 C9         -0.5764    2.5754   59.3265 C.3     1  ZINC001120957943   -0.1300
     10 C10        -0.6245    3.7997   58.4078 C.3     1  ZINC001120957943   -0.1500
     11 H11        -0.1767    4.6533   58.9170 H       1  ZINC001120957943    0.1300
     12 C12        -2.0798    4.1194   58.0606 C.3     1  ZINC001120957943    0.4600
     13 F13        -2.6541    3.0250   57.4052 F       1  ZINC001120957943   -0.1700
     14 F14        -2.7918    4.3857   59.2352 F       1  ZINC001120957943   -0.1800
     15 F15        -2.1243    5.2399   57.2241 F       1  ZINC001120957943   -0.1800
     16 C16         0.1548    3.5070   57.1203 C.3     1  ZINC001120957943    0.1100
     17 N17         1.4732    2.9856   57.4793 N.pl3   1  ZINC001120957943   -0.4700
     18 C18         3.2002    1.5671   53.5889 C.ar    1  ZINC001120957943    0.3700
     19 C19         3.5509    0.2060   53.6145 C.ar    1  ZINC001120957943    0.0500
     20 N20         3.1325   -0.6090   52.6764 N.ar    1  ZINC001120957943   -0.3900
     21 C21         2.3640   -0.1440   51.6834 C.ar    1  ZINC001120957943    0.0400
     22 C22         1.9024   -0.9968   50.6666 C.ar    1  ZINC001120957943   -0.0600
     23 C23         1.1215   -0.4971   49.6685 C.ar    1  ZINC001120957943   -0.0400
     24 Cl24        0.5539   -1.5552   48.4148 Cl      1  ZINC001120957943   -0.0600
     25 C25         0.7713    0.8525   49.6401 C.ar    1  ZINC001120957943   -0.0800
     26 C26         1.2005    1.7069   50.6084 C.ar    1  ZINC001120957943   -0.0800
     27 C27         2.0082    1.2272   51.6538 C.ar    1  ZINC001120957943    0.1400
     28 N28         2.4396    2.0448   52.6221 N.ar    1  ZINC001120957943   -0.4700
     29 H29         5.2365    1.6852   55.7565 H       1  ZINC001120957943    0.0700
     30 H30         5.6738    2.1540   54.0960 H       1  ZINC001120957943    0.0800
     31 H31         5.3501    3.4067   55.3183 H       1  ZINC001120957943    0.0700
     32 H32         3.0857    4.3288   55.2301 H       1  ZINC001120957943    0.1200
     33 H33         1.7397    3.2515   54.7876 H       1  ZINC001120957943    0.1000
     34 H34         0.9451    1.4257   60.3444 H       1  ZINC001120957943    0.1100
     35 H35         1.0754    3.1886   60.5787 H       1  ZINC001120957943    0.1000
     36 H36        -0.8669    1.6875   58.7649 H       1  ZINC001120957943    0.0900
     37 H37        -1.2629    2.7194   60.1608 H       1  ZINC001120957943    0.1000
     38 H38        -0.3848    2.7694   56.5262 H       1  ZINC001120957943    0.1000
     39 H39         0.2720    4.4265   56.5469 H       1  ZINC001120957943    0.1100
     40 H40         4.1710   -0.1718   54.4139 H       1  ZINC001120957943    0.1700
     41 H41         2.1658   -2.0441   50.6762 H       1  ZINC001120957943    0.1500
     42 H42         0.1510    1.2249   48.8381 H       1  ZINC001120957943    0.1400
     43 H43         0.9218    2.7498   50.5736 H       1  ZINC001120957943    0.1500
@<TRIPOS>BOND
     1     1     2    1
     2     1    29    1
     3     1    30    1
     4     1    31    1
     5     2     3    1
     6     2    18    1
     7     3     4    1
     8     3    32    1
     9     3    33    1
    10     4    17    1
    11     4     5    2
    12     5     6    1
    13     6     7    2
    14     7    17    1
    15     7     8    1
    16     8     9    1
    17     8    34    1
    18     8    35    1
    19     9    10    1
    20     9    36    1
    21     9    37    1
    22    10    11    1
    23    10    12    1
    24    10    16    1
    25    12    13    1
    26    12    14    1
    27    12    15    1
    28    16    17    1
    29    16    38    1
    30    16    39    1
    31    18    28   ar
    32    18    19   ar
    33    19    20   ar
    34    19    40    1
    35    20    21   ar
    36    21    27   ar
    37    21    22   ar
    38    22    23   ar
    39    22    41    1
    40    23    24    1
    41    23    25   ar
    42    25    26   ar
    43    25    42    1
    44    26    27   ar
    45    26    43    1
    46    27    28   ar
@<TRIPOS>SUBSTRUCTURE
     1 ZINC001120957943        1 TEMP              0 ****  ****    0 ROOT


##########                                Name:    ZINC000002634904
##########                DOCK_Rotatable_Bonds:                   7
##########                         Heavy_Atoms:                  31
##########                    Molecular_Weight:             423.498
##########                DOCK_Rotatable_Bonds:                   7
##########                       Formal_Charge:        -7.45058e-08
##########                     HBond_Acceptors:                   7
##########                        HBond_Donors:                   1
##########                         Heavy_Atoms:                  31
##########                          Grid_Score:          -29.637678
##########                     Grid_vdw_energy:          -28.457016
##########                      Grid_es_energy:           -1.180662
##########           Internal_energy_repulsive:          167.806198

@<TRIPOS>MOLECULE
ZINC000002634904
 48 51 1 0 0
SMALL
USER_CHARGES


@<TRIPOS>ATOM
      1 N1        -10.5562    3.0272   67.4214 N.1     1  ZINC000002634904   -0.4100
      2 C2        -10.5953    2.4507   66.4435 C.1     1  ZINC000002634904    0.2500
      3 C3        -10.6446    1.7238   65.2107 C.ar    1  ZINC000002634904   -0.0400
      4 C4         -9.4602    1.3683   64.5591 C.ar    1  ZINC000002634904   -0.0500
      5 C5         -9.5114    0.6694   63.3738 C.ar    1  ZINC000002634904   -0.1400
      6 C6        -10.7401    0.3173   62.8247 C.ar    1  ZINC000002634904    0.1700
      7 N7        -10.7881   -0.3911   61.6234 N.am    1  ZINC000002634904   -0.6700
      8 C8        -11.9775   -0.7322   61.0893 C.2     1  ZINC000002634904    0.5400
      9 O9        -13.0062   -0.4237   61.6528 O.2     1  ZINC000002634904   -0.5000
     10 C10       -12.0293   -1.4971   59.7919 C.3     1  ZINC000002634904   -0.1700
     11 S11       -10.3937   -2.1825   59.4297 S.3     1  ZINC000002634904    0.1300
     12 C12        -9.8560   -1.0522   58.1896 C.ar    1  ZINC000002634904    0.2100
     13 N13        -8.9739   -0.1097   58.5024 N.ar    1  ZINC000002634904   -0.2900
     14 N14        -8.5530    0.7371   57.6295 N.ar    1  ZINC000002634904   -0.1600
     15 C15        -8.9954    0.6897   56.3774 C.ar    1  ZINC000002634904    0.0600
     16 C16        -8.5116    1.6635   55.3709 C.ar    1  ZINC000002634904   -0.0500
     17 C17        -9.2687    2.7958   55.0721 C.ar    1  ZINC000002634904   -0.0800
     18 C18        -8.8129    3.6992   54.1338 C.ar    1  ZINC000002634904   -0.1200
     19 C19        -7.6078    3.4829   53.4897 C.ar    1  ZINC000002634904   -0.1000
     20 C20        -6.8525    2.3614   53.7819 C.ar    1  ZINC000002634904   -0.1200
     21 C21        -7.2948    1.4541   54.7229 C.ar    1  ZINC000002634904   -0.0800
     22 C22        -9.9319   -0.3017   56.0219 C.ar    1  ZINC000002634904    0.2300
     23 C23       -10.4518   -0.3910   54.6374 C.ar    1  ZINC000002634904   -0.0700
     24 C24        -9.6938   -1.0090   53.6434 C.ar    1  ZINC000002634904   -0.0700
     25 C25       -10.1835   -1.0894   52.3558 C.ar    1  ZINC000002634904   -0.1200
     26 C26       -11.4238   -0.5586   52.0502 C.ar    1  ZINC000002634904   -0.0900
     27 C27       -12.1803    0.0561   53.0319 C.ar    1  ZINC000002634904   -0.1200
     28 C28       -11.7037    0.1376   54.3243 C.ar    1  ZINC000002634904   -0.0700
     29 N29       -10.3347   -1.1595   56.9565 N.ar    1  ZINC000002634904   -0.4400
     30 C30       -11.9208    0.6690   63.4705 C.ar    1  ZINC000002634904   -0.1200
     31 C31       -11.8772    1.3632   64.6588 C.ar    1  ZINC000002634904   -0.0500
     32 H32        -8.5060    1.6418   64.9848 H       1  ZINC000002634904    0.1400
     33 H33        -8.5967    0.3947   62.8697 H       1  ZINC000002634904    0.1400
     34 H34        -9.9654   -0.6377   61.1726 H       1  ZINC000002634904    0.4200
     35 H35       -12.7524   -2.3083   59.8770 H       1  ZINC000002634904    0.1300
     36 H36       -12.3287   -0.8266   58.9864 H       1  ZINC000002634904    0.1300
     37 H37       -10.2099    2.9653   55.5738 H       1  ZINC000002634904    0.1300
     38 H38        -9.3982    4.5765   53.9016 H       1  ZINC000002634904    0.1300
     39 H39        -7.2555    4.1923   52.7555 H       1  ZINC000002634904    0.1300
     40 H40        -5.9125    2.1978   53.2758 H       1  ZINC000002634904    0.1300
     41 H41        -6.7041    0.5791   54.9504 H       1  ZINC000002634904    0.1200
     42 H42        -8.7251   -1.4234   53.8808 H       1  ZINC000002634904    0.1300
     43 H43        -9.5971   -1.5675   51.5852 H       1  ZINC000002634904    0.1300
     44 H44       -11.8030   -0.6240   51.0411 H       1  ZINC000002634904    0.1300
     45 H45       -13.1478    0.4690   52.7872 H       1  ZINC000002634904    0.1300
     46 H46       -12.2952    0.6177   55.0898 H       1  ZINC000002634904    0.1300
     47 H47       -12.8728    0.3935   63.0414 H       1  ZINC000002634904    0.1500
     48 H48       -12.7943    1.6356   65.1599 H       1  ZINC000002634904    0.1400
@<TRIPOS>BOND
     1     1     2    3
     2     2     3    1
     3     3    31   ar
     4     3     4   ar
     5     4     5   ar
     6     4    32    1
     7     5     6   ar
     8     5    33    1
     9     6     7    1
    10     6    30   ar
    11     7     8   am
    12     7    34    1
    13     8     9    2
    14     8    10    1
    15    10    11    1
    16    10    35    1
    17    10    36    1
    18    11    12    1
    19    12    29   ar
    20    12    13   ar
    21    13    14   ar
    22    14    15   ar
    23    15    16    1
    24    15    22   ar
    25    16    21   ar
    26    16    17   ar
    27    17    18   ar
    28    17    37    1
    29    18    19   ar
    30    18    38    1
    31    19    20   ar
    32    19    39    1
    33    20    21   ar
    34    20    40    1
    35    21    41    1
    36    22    23    1
    37    22    29   ar
    38    23    28   ar
    39    23    24   ar
    40    24    25   ar
    41    24    42    1
    42    25    26   ar
    43    25    43    1
    44    26    27   ar
    45    26    44    1
    46    27    28   ar
    47    27    45    1
    48    28    46    1
    49    30    31   ar
    50    30    47    1
    51    31    48    1
@<TRIPOS>SUBSTRUCTURE
     1 ZINC000002634904        1 TEMP              0 ****  ****    0 ROOT


##########                                Name:    ZINC000269356812
##########                DOCK_Rotatable_Bonds:                  10
##########                         Heavy_Atoms:                  25
##########                    Molecular_Weight:             387.431
##########                DOCK_Rotatable_Bonds:                  10
##########                       Formal_Charge:          0.00999978
##########                     HBond_Acceptors:                  10
##########                        HBond_Donors:                   3
##########                         Heavy_Atoms:                  25
##########                          Grid_Score:          -29.618896
##########                     Grid_vdw_energy:          -24.531889
##########                      Grid_es_energy:           -5.087007
##########           Internal_energy_repulsive:            6.412796

@<TRIPOS>MOLECULE
ZINC000269356812
 40 41 1 0 0
SMALL
USER_CHARGES


@<TRIPOS>ATOM
      1 C1         -1.8234    4.8479   58.2088 C.3     1  ZINC000269356812   -0.1400
      2 C2         -2.7531    3.9460   57.3944 C.3     1  ZINC000269356812    0.2000
      3 O3         -2.3862    2.5794   57.5941 O.3     1  ZINC000269356812   -0.5400
      4 C4         -4.1979    4.1580   57.8509 C.3     1  ZINC000269356812    0.0900
      5 N5         -5.1004    3.3940   56.9860 N.am    1  ZINC000269356812   -0.6900
      6 C6         -6.3636    3.8195   56.7867 C.2     1  ZINC000269356812    0.5100
      7 O7         -6.7539    4.8348   57.3250 O.2     1  ZINC000269356812   -0.5100
      8 C8         -7.2829    3.0417   55.9038 C.2     1  ZINC000269356812    0.5100
      9 O9         -8.4146    3.4353   55.7088 O.2     1  ZINC000269356812   -0.4900
     10 N10        -6.8563    1.9025   55.3234 N.am    1  ZINC000269356812   -0.6400
     11 C11        -7.7177    1.1737   54.4960 C.ar    1  ZINC000269356812    0.0900
     12 C12        -8.6693    0.3165   55.0482 C.ar    1  ZINC000269356812   -0.0600
     13 C13        -9.4999   -0.3835   54.1933 C.ar    1  ZINC000269356812   -0.1200
     14 C14        -9.3601   -0.2111   52.8195 C.ar    1  ZINC000269356812    0.1000
     15 S15       -10.4130   -1.0970   51.7189 S.3     1  ZINC000269356812   -0.0600
     16 C16       -11.9440   -0.1246   51.7474 C.3     1  ZINC000269356812    0.2900
     17 F17       -12.7121   -0.4310   50.6190 F       1  ZINC000269356812   -0.1700
     18 F18       -12.6700   -0.4316   52.9032 F       1  ZINC000269356812   -0.1700
     19 N19        -8.4450    0.6118   52.3300 N.ar    1  ZINC000269356812   -0.4600
     20 C20        -7.6396    1.2994   53.1165 C.ar    1  ZINC000269356812    0.1100
     21 C21        -2.6325    4.2900   55.9323 C.2     1  ZINC000269356812   -0.2300
     22 C22        -1.7891    3.7145   55.0739 C.2     1  ZINC000269356812   -0.1100
     23 C23        -1.8577    4.1954   53.7776 C.2     1  ZINC000269356812   -0.1400
     24 C24        -2.7570    5.1612   53.5833 C.2     1  ZINC000269356812   -0.2000
     25 S25        -3.5878    5.5062   55.0947 S.3     1  ZINC000269356812    0.1100
     26 H26        -0.7940    4.6968   57.8837 H       1  ZINC000269356812    0.0800
     27 H27        -2.1032    5.8902   58.0565 H       1  ZINC000269356812    0.0800
     28 H28        -1.9105    4.5990   59.2665 H       1  ZINC000269356812    0.0700
     29 H29        -2.9359    1.9495   57.1083 H       1  ZINC000269356812    0.3800
     30 H30        -4.3072    3.8180   58.8807 H       1  ZINC000269356812    0.0900
     31 H31        -4.4465    5.2175   57.7898 H       1  ZINC000269356812    0.0900
     32 H32        -4.7888    2.5818   56.5568 H       1  ZINC000269356812    0.4200
     33 H33        -5.9520    1.5879   55.4793 H       1  ZINC000269356812    0.4300
     34 H34        -8.7550    0.2021   56.1187 H       1  ZINC000269356812    0.1600
     35 H35       -10.2477   -1.0562   54.5867 H       1  ZINC000269356812    0.1500
     36 H36       -11.6998    0.9378   51.7431 H       1  ZINC000269356812    0.1500
     37 H37        -6.9052    1.9610   52.6813 H       1  ZINC000269356812    0.1700
     38 H38        -1.1041    2.9331   55.3680 H       1  ZINC000269356812    0.1500
     39 H39        -1.2304    3.8173   52.9839 H       1  ZINC000269356812    0.1400
     40 H40        -2.9481    5.6534   52.6412 H       1  ZINC000269356812    0.1700
@<TRIPOS>BOND
     1     1     2    1
     2     1    26    1
     3     1    27    1
     4     1    28    1
     5     2     3    1
     6     2     4    1
     7     2    21    1
     8     3    29    1
     9     4     5    1
    10     4    30    1
    11     4    31    1
    12     5     6   am
    13     5    32    1
    14     6     7    2
    15     6     8    1
    16     8     9    2
    17     8    10   am
    18    10    11    1
    19    10    33    1
    20    11    20   ar
    21    11    12   ar
    22    12    13   ar
    23    12    34    1
    24    13    14   ar
    25    13    35    1
    26    14    15    1
    27    14    19   ar
    28    15    16    1
    29    16    17    1
    30    16    18    1
    31    16    36    1
    32    19    20   ar
    33    20    37    1
    34    21    25    1
    35    21    22    2
    36    22    23    1
    37    22    38    1
    38    23    24    2
    39    23    39    1
    40    24    25    1
    41    24    40    1
@<TRIPOS>SUBSTRUCTURE
     1 ZINC000269356812        1 TEMP              0 ****  ****    0 ROOT


##########                                Name:    ZINC000001174632
##########                DOCK_Rotatable_Bonds:                   6
##########                         Heavy_Atoms:                  29
##########                    Molecular_Weight:             385.419
##########                DOCK_Rotatable_Bonds:                   6
##########                       Formal_Charge:           0.0400005
##########                     HBond_Acceptors:                   5
##########                        HBond_Donors:                   1
##########                         Heavy_Atoms:                  29
##########                          Grid_Score:          -29.615528
##########                     Grid_vdw_energy:          -27.993759
##########                      Grid_es_energy:           -1.621769
##########           Internal_energy_repulsive:           14.130839

@<TRIPOS>MOLECULE
ZINC000001174632
 48 51 1 0 0
SMALL
USER_CHARGES


@<TRIPOS>ATOM
      1 C1        -14.1211    1.0258   62.5786 C.3     1  ZINC000001174632    0.0400
      2 O2        -12.7698    0.4974   62.6304 O.3     1  ZINC000001174632   -0.3500
      3 C3        -11.8326    1.2701   63.2142 C.2     1  ZINC000001174632    0.5200
      4 O4        -12.1288    2.3708   63.6353 O.2     1  ZINC000001174632   -0.5200
      5 C5        -10.4487    0.7802   63.3418 C.ar    1  ZINC000001174632   -0.2000
      6 C6         -9.7755    0.8849   64.5613 C.ar    1  ZINC000001174632   -0.0200
      7 C7         -8.4814    0.4243   64.6740 C.ar    1  ZINC000001174632   -0.1800
      8 C8         -7.8424   -0.1432   63.5834 C.ar    1  ZINC000001174632   -0.0300
      9 C9         -8.4934   -0.2537   62.3714 C.ar    1  ZINC000001174632   -0.1900
     10 C10        -9.8001    0.1995   62.2393 C.ar    1  ZINC000001174632    0.2600
     11 N11       -10.4575    0.0892   61.0211 N.pl3   1  ZINC000001174632   -0.6500
     12 C12        -9.8856    0.6005   59.8847 C.2     1  ZINC000001174632    0.2300
     13 C13       -10.0206    0.0742   58.6143 C.2     1  ZINC000001174632   -0.1800
     14 C14       -10.8024   -1.1294   58.2537 C.ar    1  ZINC000001174632   -0.0600
     15 C15       -11.9725   -1.0046   57.5031 C.ar    1  ZINC000001174632   -0.0600
     16 C16       -12.6983   -2.1288   57.1691 C.ar    1  ZINC000001174632   -0.1500
     17 C17       -12.2669   -3.3829   57.5788 C.ar    1  ZINC000001174632    0.1400
     18 O18       -12.9852   -4.4886   57.2474 O.3     1  ZINC000001174632   -0.3200
     19 C19       -14.1863   -4.2822   56.5011 C.3     1  ZINC000001174632    0.0300
     20 C20       -11.1036   -3.5113   58.3254 C.ar    1  ZINC000001174632   -0.2100
     21 C21       -10.3688   -2.3927   58.6583 C.ar    1  ZINC000001174632   -0.0500
     22 C22        -9.2561    0.9136   57.6831 C.2     1  ZINC000001174632    0.4500
     23 O23        -9.1490    0.7501   56.4835 O.2     1  ZINC000001174632   -0.4100
     24 C24        -8.6374    2.0034   58.4872 C.ar    1  ZINC000001174632   -0.1600
     25 C25        -7.8236    3.0696   58.1533 C.ar    1  ZINC000001174632   -0.0500
     26 C26        -7.3888    3.9464   59.1424 C.ar    1  ZINC000001174632   -0.1100
     27 C27        -7.7665    3.7553   60.4538 C.ar    1  ZINC000001174632   -0.0900
     28 C28        -8.5845    2.6867   60.8011 C.ar    1  ZINC000001174632   -0.0800
     29 C29        -9.0298    1.8092   59.8233 C.ar    1  ZINC000001174632   -0.0600
     30 H30       -14.1241    1.9620   62.0203 H       1  ZINC000001174632    0.0700
     31 H31       -14.7741    0.3062   62.0847 H       1  ZINC000001174632    0.1100
     32 H32       -14.4799    1.2060   63.5921 H       1  ZINC000001174632    0.0700
     33 H33       -10.2684    1.3267   65.4147 H       1  ZINC000001174632    0.1400
     34 H34        -7.9624    0.5065   65.6177 H       1  ZINC000001174632    0.1300
     35 H35        -6.8283   -0.5011   63.6822 H       1  ZINC000001174632    0.1300
     36 H36        -7.9881   -0.6965   61.5259 H       1  ZINC000001174632    0.1300
     37 H37       -11.3213   -0.3496   60.9741 H       1  ZINC000001174632    0.4300
     38 H38       -12.3092   -0.0291   57.1846 H       1  ZINC000001174632    0.1300
     39 H39       -13.6038   -2.0331   56.5884 H       1  ZINC000001174632    0.1300
     40 H40       -14.8663   -3.6518   57.0739 H       1  ZINC000001174632    0.0600
     41 H41       -13.9473   -3.7940   55.5561 H       1  ZINC000001174632    0.0600
     42 H42       -14.6610   -5.2433   56.3037 H       1  ZINC000001174632    0.1000
     43 H43       -10.7715   -4.4888   58.6425 H       1  ZINC000001174632    0.1300
     44 H44        -9.4637   -2.4934   59.2388 H       1  ZINC000001174632    0.1300
     45 H45        -7.5253    3.2217   57.1266 H       1  ZINC000001174632    0.1400
     46 H46        -6.7529    4.7795   58.8815 H       1  ZINC000001174632    0.1400
     47 H47        -7.4245    4.4395   61.2162 H       1  ZINC000001174632    0.1400
     48 H48        -8.8771    2.5422   61.8306 H       1  ZINC000001174632    0.1300
@<TRIPOS>BOND
     1     1     2    1
     2     1    30    1
     3     1    31    1
     4     1    32    1
     5     2     3    1
     6     3     4    2
     7     3     5    1
     8     5    10   ar
     9     5     6   ar
    10     6     7   ar
    11     6    33    1
    12     7     8   ar
    13     7    34    1
    14     8     9   ar
    15     8    35    1
    16     9    10   ar
    17     9    36    1
    18    10    11    1
    19    11    12    1
    20    11    37    1
    21    12    29    1
    22    12    13    2
    23    13    14    1
    24    13    22    1
    25    14    21   ar
    26    14    15   ar
    27    15    16   ar
    28    15    38    1
    29    16    17   ar
    30    16    39    1
    31    17    18    1
    32    17    20   ar
    33    18    19    1
    34    19    40    1
    35    19    41    1
    36    19    42    1
    37    20    21   ar
    38    20    43    1
    39    21    44    1
    40    22    23    2
    41    22    24    1
    42    24    29   ar
    43    24    25   ar
    44    25    26   ar
    45    25    45    1
    46    26    27   ar
    47    26    46    1
    48    27    28   ar
    49    27    47    1
    50    28    29   ar
    51    28    48    1
@<TRIPOS>SUBSTRUCTURE
     1 ZINC000001174632        1 TEMP              0 ****  ****    0 ROOT


##########                                Name:    ZINC000892389374
##########                DOCK_Rotatable_Bonds:                   6
##########                         Heavy_Atoms:                  25
##########                    Molecular_Weight:             371.383
##########                DOCK_Rotatable_Bonds:                   6
##########                       Formal_Charge:          -0.0199998
##########                     HBond_Acceptors:                   9
##########                        HBond_Donors:                   1
##########                         Heavy_Atoms:                  25
##########                          Grid_Score:          -29.614885
##########                     Grid_vdw_energy:          -29.474628
##########                      Grid_es_energy:           -0.140257
##########           Internal_energy_repulsive:            8.784569

@<TRIPOS>MOLECULE
ZINC000892389374
 41 43 1 0 0
SMALL
USER_CHARGES


@<TRIPOS>ATOM
      1 C1         -6.7401    3.0130   57.0382 C.3     1  ZINC000892389374   -0.1000
      2 C2         -7.5708    2.2550   56.0349 C.ar    1  ZINC000892389374   -0.1800
      3 C3         -7.1770    2.2029   54.7119 C.ar    1  ZINC000892389374   -0.0400
      4 C4         -7.9357    1.5086   53.7890 C.ar    1  ZINC000892389374   -0.2100
      5 C5         -9.0976    0.8610   54.1889 C.ar    1  ZINC000892389374    0.2200
      6 N6         -9.8653    0.1582   53.2534 N.am    1  ZINC000892389374   -0.5700
      7 C7        -11.2546    0.4670   52.8818 C.3     1  ZINC000892389374    0.0600
      8 C8        -11.5999   -0.6044   51.8296 C.3     1  ZINC000892389374    0.0400
      9 O9        -10.3818   -1.3962   51.7196 O.3     1  ZINC000892389374   -0.3200
     10 C10        -9.4525   -0.9022   52.5457 C.2     1  ZINC000892389374    0.6400
     11 O11        -8.3390   -1.3771   52.6509 O.2     1  ZINC000892389374   -0.5000
     12 C12        -9.4962    0.9112   55.5170 C.ar    1  ZINC000892389374   -0.2300
     13 C13        -8.7292    1.6044   56.4428 C.ar    1  ZINC000892389374    0.2400
     14 N14        -9.1269    1.6574   57.7805 N.pl3   1  ZINC000892389374   -0.7400
     15 C15        -8.7549    0.5782   58.6987 C.3     1  ZINC000892389374    0.2000
     16 C16        -8.7833    1.0916   60.1152 C.2     1  ZINC000892389374   -0.2400
     17 C17        -8.6226    2.3631   60.4941 C.2     1  ZINC000892389374    0.0600
     18 N18        -8.6897    2.5582   61.7955 N.2     1  ZINC000892389374   -0.4500
     19 C19        -8.8980    1.5221   62.5358 C.2     1  ZINC000892389374    0.0200
     20 C20        -9.0056    1.5434   64.0388 C.3     1  ZINC000892389374   -0.0900
     21 C21        -8.3774    0.2720   64.6131 C.3     1  ZINC000892389374    0.4600
     22 F22        -7.1088    0.0849   64.0538 F       1  ZINC000892389374   -0.1800
     23 F23        -8.2613    0.3955   66.0017 F       1  ZINC000892389374   -0.1800
     24 F24        -9.1879   -0.8270   64.3088 F       1  ZINC000892389374   -0.1700
     25 S25        -9.0416    0.1227   61.5641 S.3     1  ZINC000892389374    0.1900
     26 H26        -5.9951    2.3455   57.4713 H       1  ZINC000892389374    0.0700
     27 H27        -6.2387    3.8436   56.5415 H       1  ZINC000892389374    0.0700
     28 H28        -7.3857    3.3979   57.8276 H       1  ZINC000892389374    0.0600
     29 H29        -6.2744    2.7061   54.3981 H       1  ZINC000892389374    0.1300
     30 H30        -7.6251    1.4698   52.7553 H       1  ZINC000892389374    0.1200
     31 H31       -11.9110    0.3788   53.7476 H       1  ZINC000892389374    0.1000
     32 H32       -11.3223    1.4649   52.4488 H       1  ZINC000892389374    0.1000
     33 H33       -12.4286   -1.2238   52.1726 H       1  ZINC000892389374    0.1100
     34 H34       -11.8401   -0.1381   50.8741 H       1  ZINC000892389374    0.1100
     35 H35       -10.3994    0.4087   55.8303 H       1  ZINC000892389374    0.1600
     36 H36        -9.6494    2.4090   58.1018 H       1  ZINC000892389374    0.4000
     37 H37        -9.4616   -0.2454   58.5965 H       1  ZINC000892389374    0.0900
     38 H38        -7.7510    0.2274   58.4594 H       1  ZINC000892389374    0.0800
     39 H39        -8.4518    3.1650   59.7910 H       1  ZINC000892389374    0.1800
     40 H40        -8.4808    2.4158   64.4283 H       1  ZINC000892389374    0.1300
     41 H41       -10.0555    1.5923   64.3274 H       1  ZINC000892389374    0.1400
@<TRIPOS>BOND
     1     1     2    1
     2     1    26    1
     3     1    27    1
     4     1    28    1
     5     2    13   ar
     6     2     3   ar
     7     3     4   ar
     8     3    29    1
     9     4     5   ar
    10     4    30    1
    11     5     6    1
    12     5    12   ar
    13     6    10   am
    14     6     7    1
    15     7     8    1
    16     7    31    1
    17     7    32    1
    18     8     9    1
    19     8    33    1
    20     8    34    1
    21     9    10    1
    22    10    11    2
    23    12    13   ar
    24    12    35    1
    25    13    14    1
    26    14    15    1
    27    14    36    1
    28    15    16    1
    29    15    37    1
    30    15    38    1
    31    16    25    1
    32    16    17    2
    33    17    18    1
    34    17    39    1
    35    18    19    2
    36    19    20    1
    37    19    25    1
    38    20    21    1
    39    20    40    1
    40    20    41    1
    41    21    22    1
    42    21    23    1
    43    21    24    1
@<TRIPOS>SUBSTRUCTURE
     1 ZINC000892389374        1 TEMP              0 ****  ****    0 ROOT


##########                                Name:    ZINC000174621331
##########                DOCK_Rotatable_Bonds:                   8
##########                         Heavy_Atoms:                  25
##########                    Molecular_Weight:             366.438
##########                DOCK_Rotatable_Bonds:                   8
##########                       Formal_Charge:        -5.96046e-08
##########                     HBond_Acceptors:                   8
##########                        HBond_Donors:                   3
##########                         Heavy_Atoms:                  25
##########                          Grid_Score:          -29.598654
##########                     Grid_vdw_energy:          -28.347551
##########                      Grid_es_energy:           -1.251103
##########           Internal_energy_repulsive:           16.979057

@<TRIPOS>MOLECULE
ZINC000174621331
 47 48 1 0 0
SMALL
USER_CHARGES


@<TRIPOS>ATOM
      1 C1         -7.7006    0.2970   64.7658 C.3     1  ZINC000174621331    0.0300
      2 O2         -8.9519   -0.3456   64.5138 O.3     1  ZINC000174621331   -0.3800
      3 C3         -9.9033    0.4793   63.8381 C.3     1  ZINC000174621331    0.0500
      4 C4         -9.4418    0.7161   62.3988 C.3     1  ZINC000174621331    0.2400
      5 H5         -8.4688    0.2485   62.2475 H       1  ZINC000174621331    0.1300
      6 N6        -10.4140    0.1315   61.4718 N.am    1  ZINC000174621331   -0.7200
      7 C7         -9.9880   -0.5673   60.4009 C.2     1  ZINC000174621331    0.5600
      8 O8         -8.7974   -0.7112   60.2035 O.2     1  ZINC000174621331   -0.5300
      9 C9        -10.9691   -1.1587   59.4663 C.ar    1  ZINC000174621331   -0.1600
     10 C10       -10.6754   -1.2463   58.1048 C.ar    1  ZINC000174621331   -0.0200
     11 C11       -11.5953   -1.7998   57.2380 C.ar    1  ZINC000174621331   -0.1100
     12 C12       -11.2799   -1.8952   55.7675 C.3     1  ZINC000174621331   -0.1200
     13 C13       -12.8062   -2.2678   57.7159 C.ar    1  ZINC000174621331    0.0400
     14 C14       -13.8058   -2.8717   56.7635 C.3     1  ZINC000174621331   -0.1600
     15 C15       -13.1034   -2.1844   59.0649 C.ar    1  ZINC000174621331   -0.6800
     16 S16       -14.6484   -2.7841   59.6633 S.o2    1  ZINC000174621331    2.7000
     17 N17       -14.5336   -2.8742   61.3128 N.am    1  ZINC000174621331   -1.2500
     18 O18       -15.6070   -1.7735   59.3823 O.2     1  ZINC000174621331   -0.9500
     19 O19       -14.7683   -4.1206   59.1957 O.2     1  ZINC000174621331   -0.9600
     20 C20       -12.1909   -1.6373   59.9427 C.ar    1  ZINC000174621331    0.0400
     21 C21        -9.3323    2.1974   62.1437 C.2     1  ZINC000174621331   -0.0200
     22 C22        -8.9068    3.1184   63.0270 C.2     1  ZINC000174621331   -0.1900
     23 C23        -8.9647    4.3705   62.3731 C.2     1  ZINC000174621331   -0.2100
     24 C24        -9.4220    4.1398   61.1293 C.2     1  ZINC000174621331    0.0000
     25 C25        -9.6474    5.1832   60.0655 C.3     1  ZINC000174621331   -0.0800
     26 O26        -9.6374    2.8211   60.9941 O.3     1  ZINC000174621331   -0.1600
     27 H27        -7.2503    0.5991   63.8202 H       1  ZINC000174621331    0.0400
     28 H28        -7.8629    1.1770   65.3884 H       1  ZINC000174621331    0.0400
     29 H29        -7.0342   -0.3947   65.2811 H       1  ZINC000174621331    0.0900
     30 H30       -10.8740   -0.0164   63.8316 H       1  ZINC000174621331    0.0700
     31 H31        -9.9869    1.4354   64.3549 H       1  ZINC000174621331    0.0700
     32 H32       -11.3642    0.2474   61.6287 H       1  ZINC000174621331    0.4100
     33 H33        -9.7305   -0.8813   57.7304 H       1  ZINC000174621331    0.1400
     34 H34       -10.7868   -2.8455   55.5625 H       1  ZINC000174621331    0.0800
     35 H35       -12.2042   -1.8342   55.1929 H       1  ZINC000174621331    0.0800
     36 H36       -10.6206   -1.0751   55.4833 H       1  ZINC000174621331    0.0700
     37 H37       -13.6293   -3.9443   56.6834 H       1  ZINC000174621331    0.1100
     38 H38       -14.8149   -2.6962   57.1364 H       1  ZINC000174621331    0.0700
     39 H39       -13.6961   -2.4112   55.7816 H       1  ZINC000174621331    0.0900
     40 H40       -14.3484   -2.0752   61.8305 H       1  ZINC000174621331    0.4200
     41 H41       -14.6516   -3.7262   61.7613 H       1  ZINC000174621331    0.4200
     42 H42       -12.4239   -1.5731   60.9954 H       1  ZINC000174621331    0.1600
     43 H43        -8.5837    2.9362   64.0413 H       1  ZINC000174621331    0.1500
     44 H44        -8.6940    5.3285   62.7920 H       1  ZINC000174621331    0.1500
     45 H45        -8.7374    5.3060   59.4784 H       1  ZINC000174621331    0.0800
     46 H46       -10.4610    4.8668   59.4129 H       1  ZINC000174621331    0.0800
     47 H47        -9.9070    6.1316   60.5360 H       1  ZINC000174621331    0.0900
@<TRIPOS>BOND
     1     1     2    1
     2     1    27    1
     3     1    28    1
     4     1    29    1
     5     2     3    1
     6     3     4    1
     7     3    30    1
     8     3    31    1
     9     4     5    1
    10     4     6    1
    11     4    21    1
    12     6     7   am
    13     6    32    1
    14     7     8    2
    15     7     9    1
    16     9    20   ar
    17     9    10   ar
    18    10    11   ar
    19    10    33    1
    20    11    12    1
    21    11    13   ar
    22    12    34    1
    23    12    35    1
    24    12    36    1
    25    13    14    1
    26    13    15   ar
    27    14    37    1
    28    14    38    1
    29    14    39    1
    30    15    16    1
    31    15    20   ar
    32    16    17   am
    33    16    18    2
    34    16    19    2
    35    17    40    1
    36    17    41    1
    37    20    42    1
    38    21    26    1
    39    21    22    2
    40    22    23    1
    41    22    43    1
    42    23    24    2
    43    23    44    1
    44    24    25    1
    45    24    26    1
    46    25    45    1
    47    25    46    1
    48    25    47    1
@<TRIPOS>SUBSTRUCTURE
     1 ZINC000174621331        1 TEMP              0 ****  ****    0 ROOT


##########                                Name:    ZINC001162683355
##########                DOCK_Rotatable_Bonds:                   5
##########                         Heavy_Atoms:                  25
##########                    Molecular_Weight:             336.437
##########                DOCK_Rotatable_Bonds:                   5
##########                       Formal_Charge:          -0.0100002
##########                     HBond_Acceptors:                   5
##########                        HBond_Donors:                   1
##########                         Heavy_Atoms:                  25
##########                          Grid_Score:          -29.580210
##########                     Grid_vdw_energy:          -28.674442
##########                      Grid_es_energy:           -0.905767
##########           Internal_energy_repulsive:           12.278060

@<TRIPOS>MOLECULE
ZINC001162683355
 49 52 1 0 0
SMALL
USER_CHARGES


@<TRIPOS>ATOM
      1 C1        -13.7498    1.5078   60.0657 C.3     1  ZINC001162683355    0.0200
      2 N2        -13.3628    0.1328   59.7232 N.3     1  ZINC001162683355   -0.5400
      3 C3        -13.4693   -0.7514   60.8928 C.3     1  ZINC001162683355    0.0100
      4 C4        -13.1155   -2.1821   60.4782 C.3     1  ZINC001162683355    0.0600
      5 O5        -11.8049   -2.1969   59.9058 O.3     1  ZINC001162683355   -0.3800
      6 C6        -11.6658   -1.3470   58.7640 C.3     1  ZINC001162683355    0.0800
      7 H7        -12.3454   -1.6783   57.9787 H       1  ZINC001162683355    0.0700
      8 C8        -10.2251   -1.4100   58.2528 C.3     1  ZINC001162683355    0.1500
      9 N9         -9.3300   -0.7988   59.2383 N.pl3   1  ZINC001162683355   -0.7300
     10 C10        -8.8668    0.4982   59.0468 C.ar    1  ZINC001162683355    0.4300
     11 C11        -8.7671    1.3705   60.1333 C.ar    1  ZINC001162683355   -0.0100
     12 C12        -8.2943    2.6755   59.9042 C.ar    1  ZINC001162683355   -0.0400
     13 C13        -7.9438    3.0449   58.5986 C.ar    1  ZINC001162683355   -0.1800
     14 C14        -8.0735    2.1270   57.5973 C.ar    1  ZINC001162683355    0.1000
     15 N15        -8.5209    0.9037   57.8361 N.ar    1  ZINC001162683355   -0.5400
     16 C16        -8.2992    3.3428   61.2025 C.2     1  ZINC001162683355   -0.2200
     17 C17        -8.7571    2.4517   62.1000 C.2     1  ZINC001162683355    0.0800
     18 N18        -9.0359    1.2676   61.4791 N.pl3   1  ZINC001162683355   -0.4600
     19 C19        -9.5503    0.0686   62.1455 C.3     1  ZINC001162683355    0.1500
     20 C20        -9.2682    0.1551   63.6234 C.ar    1  ZINC001162683355   -0.1100
     21 C21       -10.3116    0.2974   64.5188 C.ar    1  ZINC001162683355   -0.1000
     22 C22       -10.0532    0.3724   65.8748 C.ar    1  ZINC001162683355   -0.1200
     23 C23        -8.7508    0.3144   66.3345 C.ar    1  ZINC001162683355   -0.1100
     24 C24        -7.7071    0.1774   65.4385 C.ar    1  ZINC001162683355   -0.1200
     25 C25        -7.9658    0.0980   64.0829 C.ar    1  ZINC001162683355   -0.1000
     26 C26       -12.0050    0.0921   59.1612 C.3     1  ZINC001162683355    0.0300
     27 H27       -13.0509    1.9100   60.7991 H       1  ZINC001162683355    0.0300
     28 H28       -13.7296    2.1254   59.1678 H       1  ZINC001162683355    0.0700
     29 H29       -14.7563    1.5085   60.4845 H       1  ZINC001162683355    0.0700
     30 H30       -14.4890   -0.7254   61.2771 H       1  ZINC001162683355    0.0900
     31 H31       -12.7793   -0.4156   61.6669 H       1  ZINC001162683355    0.0500
     32 H32       -13.8378   -2.5372   59.7432 H       1  ZINC001162683355    0.0600
     33 H33       -13.1377   -2.8314   61.3535 H       1  ZINC001162683355    0.1000
     34 H34       -10.1504   -0.8690   57.3095 H       1  ZINC001162683355    0.0700
     35 H35        -9.9395   -2.4505   58.0984 H       1  ZINC001162683355    0.0800
     36 H36        -9.0604   -1.2990   60.0245 H       1  ZINC001162683355    0.4000
     37 H37        -7.5770    4.0387   58.3885 H       1  ZINC001162683355    0.1300
     38 H38        -7.8050    2.4039   56.5885 H       1  ZINC001162683355    0.1500
     39 H39        -7.9971    4.3600   61.4035 H       1  ZINC001162683355    0.1500
     40 H40        -8.8833    2.6434   63.1554 H       1  ZINC001162683355    0.1700
     41 H41        -9.0613   -0.8142   61.7333 H       1  ZINC001162683355    0.0900
     42 H42       -10.6259   -0.0033   61.9844 H       1  ZINC001162683355    0.0900
     43 H43       -11.3289    0.3466   64.1595 H       1  ZINC001162683355    0.1200
     44 H44       -10.8687    0.4791   66.5749 H       1  ZINC001162683355    0.1300
     45 H45        -8.5488    0.3757   67.3937 H       1  ZINC001162683355    0.1300
     46 H46        -6.6896    0.1320   65.7977 H       1  ZINC001162683355    0.1300
     47 H47        -7.1503   -0.0090   63.3829 H       1  ZINC001162683355    0.1200
     48 H48       -11.2916    0.4414   59.9076 H       1  ZINC001162683355    0.0500
     49 H49       -11.9558    0.7337   58.2814 H       1  ZINC001162683355    0.0900
@<TRIPOS>BOND
     1     1     2    1
     2     1    27    1
     3     1    28    1
     4     1    29    1
     5     2    26    1
     6     2     3    1
     7     3     4    1
     8     3    30    1
     9     3    31    1
    10     4     5    1
    11     4    32    1
    12     4    33    1
    13     5     6    1
    14     6     7    1
    15     6     8    1
    16     6    26    1
    17     8     9    1
    18     8    34    1
    19     8    35    1
    20     9    10    1
    21     9    36    1
    22    10    15   ar
    23    10    11   ar
    24    11    18    1
    25    11    12   ar
    26    12    13   ar
    27    12    16    1
    28    13    14   ar
    29    13    37    1
    30    14    15   ar
    31    14    38    1
    32    16    17    2
    33    16    39    1
    34    17    18    1
    35    17    40    1
    36    18    19    1
    37    19    20    1
    38    19    41    1
    39    19    42    1
    40    20    25   ar
    41    20    21   ar
    42    21    22   ar
    43    21    43    1
    44    22    23   ar
    45    22    44    1
    46    23    24   ar
    47    23    45    1
    48    24    25   ar
    49    24    46    1
    50    25    47    1
    51    26    48    1
    52    26    49    1
@<TRIPOS>SUBSTRUCTURE
     1 ZINC001162683355        1 TEMP              0 ****  ****    0 ROOT


##########                                Name:    ZINC000195331548
##########                DOCK_Rotatable_Bonds:                   7
##########                         Heavy_Atoms:                  26
##########                    Molecular_Weight:             378.539
##########                DOCK_Rotatable_Bonds:                   7
##########                       Formal_Charge:          -0.0100004
##########                     HBond_Acceptors:                   7
##########                        HBond_Donors:                   2
##########                         Heavy_Atoms:                  26
##########                          Grid_Score:          -29.579554
##########                     Grid_vdw_energy:          -28.111233
##########                      Grid_es_energy:           -1.468321
##########           Internal_energy_repulsive:           24.824694

@<TRIPOS>MOLECULE
ZINC000195331548
 56 58 1 0 0
SMALL
USER_CHARGES


@<TRIPOS>ATOM
      1 C1         -1.4343    4.6281   62.4592 C.3     1  ZINC000195331548   -0.0800
      2 C2         -1.4571    3.8620   61.1617 C.2     1  ZINC000195331548    0.0700
      3 C3         -0.6024    2.8706   60.8922 C.2     1  ZINC000195331548   -0.2600
      4 S4         -0.9800    2.2504   59.2868 S.3     1  ZINC000195331548    0.1100
      5 C5         -2.2441    3.3915   59.1341 C.2     1  ZINC000195331548    0.0600
      6 C6         -3.1418    3.5284   57.9313 C.3     1  ZINC000195331548   -0.0100
      7 H7         -3.1432    2.5944   57.3694 H       1  ZINC000195331548    0.1100
      8 C8         -2.6303    4.6619   57.0380 C.3     1  ZINC000195331548   -0.1200
      9 C9         -3.5813    4.8339   55.8503 C.3     1  ZINC000195331548   -0.1100
     10 C10        -4.9924    5.1180   56.3699 C.3     1  ZINC000195331548    0.0500
     11 N11        -5.4364    4.0046   57.2182 N.3     1  ZINC000195331548   -0.5200
     12 C12        -6.8381    4.1773   57.6226 C.3     1  ZINC000195331548    0.0400
     13 C13        -7.3852    2.8617   58.1130 C.2     1  ZINC000195331548    0.5100
     14 O14        -7.4308    1.9079   57.3660 O.2     1  ZINC000195331548   -0.4400
     15 N15        -7.8237    2.7452   59.3821 N.am    1  ZINC000195331548   -0.7000
     16 C16        -8.3145    1.5690   59.8203 C.2     1  ZINC000195331548    0.6900
     17 O17        -8.3630    0.6136   59.0705 O.2     1  ZINC000195331548   -0.5300
     18 N18        -8.7516    1.4521   61.0898 N.am    1  ZINC000195331548   -0.7300
     19 C19        -9.2834    0.1729   61.5666 C.3     1  ZINC000195331548    0.1700
     20 H20        -8.6065   -0.6317   61.2795 H       1  ZINC000195331548    0.0900
     21 C21       -10.6593   -0.0713   60.9435 C.3     1  ZINC000195331548   -0.1300
     22 C22       -11.6094    1.0581   61.3465 C.3     1  ZINC000195331548   -0.1200
     23 C23       -11.7392    1.0961   62.8705 C.3     1  ZINC000195331548   -0.1200
     24 C24       -10.3634    1.3403   63.4937 C.3     1  ZINC000195331548   -0.1100
     25 C25        -9.4132    0.2109   63.0906 C.3     1  ZINC000195331548   -0.1000
     26 H26        -9.8090   -0.7408   63.4453 H       1  ZINC000195331548    0.0900
     27 C27        -8.0373    0.4552   63.7137 C.3     1  ZINC000195331548   -0.1500
     28 C28        -4.5657    3.8504   58.3906 C.3     1  ZINC000195331548    0.0600
     29 N29        -2.3218    4.1147   60.1998 N.2     1  ZINC000195331548   -0.4700
     30 H30        -2.0838    4.1360   63.1832 H       1  ZINC000195331548    0.0800
     31 H31        -0.4157    4.6573   62.8460 H       1  ZINC000195331548    0.0800
     32 H32        -1.7870    5.6450   62.2871 H       1  ZINC000195331548    0.0800
     33 H33         0.1791    2.5106   61.5449 H       1  ZINC000195331548    0.1800
     34 H34        -2.5920    5.5883   57.6111 H       1  ZINC000195331548    0.0600
     35 H35        -1.6324    4.4170   56.6744 H       1  ZINC000195331548    0.0700
     36 H36        -3.2459    5.6675   55.2334 H       1  ZINC000195331548    0.0800
     37 H37        -3.5895    3.9204   55.2555 H       1  ZINC000195331548    0.0800
     38 H38        -5.6748    5.2267   55.5269 H       1  ZINC000195331548    0.0800
     39 H39        -4.9861    6.0388   56.9531 H       1  ZINC000195331548    0.0400
     40 H40        -7.4232    4.5184   56.7685 H       1  ZINC000195331548    0.1200
     41 H41        -6.8973    4.9160   58.4219 H       1  ZINC000195331548    0.0700
     42 H42        -7.7861    3.5080   59.9801 H       1  ZINC000195331548    0.4100
     43 H43        -8.7140    2.2149   61.6879 H       1  ZINC000195331548    0.4000
     44 H44       -11.0550   -1.0230   61.2983 H       1  ZINC000195331548    0.0700
     45 H45       -10.5668   -0.0984   59.8578 H       1  ZINC000195331548    0.0700
     46 H46       -12.5897    0.8840   60.9026 H       1  ZINC000195331548    0.0600
     47 H47       -11.2138    2.0097   60.9918 H       1  ZINC000195331548    0.0600
     48 H48       -12.4162    1.9007   63.1576 H       1  ZINC000195331548    0.0600
     49 H49       -12.1349    0.1443   63.2252 H       1  ZINC000195331548    0.0600
     50 H50        -9.9677    2.2920   63.1388 H       1  ZINC000195331548    0.0600
     51 H51       -10.4558    1.3673   64.5794 H       1  ZINC000195331548    0.0700
     52 H52        -7.6416    1.4069   63.3590 H       1  ZINC000195331548    0.0500
     53 H53        -8.1298    0.4822   64.7994 H       1  ZINC000195331548    0.0600
     54 H54        -7.3604   -0.3494   63.4266 H       1  ZINC000195331548    0.0600
     55 H55        -4.5615    4.7772   58.9643 H       1  ZINC000195331548    0.0400
     56 H56        -4.9382    3.0384   59.0153 H       1  ZINC000195331548    0.0900
@<TRIPOS>BOND
     1     1     2    1
     2     1    30    1
     3     1    31    1
     4     1    32    1
     5     2    29    1
     6     2     3    2
     7     3     4    1
     8     3    33    1
     9     4     5    1
    10     5     6    1
    11     5    29    2
    12     6     7    1
    13     6    28    1
    14     6     8    1
    15     8     9    1
    16     8    34    1
    17     8    35    1
    18     9    10    1
    19     9    36    1
    20     9    37    1
    21    10    11    1
    22    10    38    1
    23    10    39    1
    24    11    12    1
    25    11    28    1
    26    12    13    1
    27    12    40    1
    28    12    41    1
    29    13    14    2
    30    13    15   am
    31    15    16   am
    32    15    42    1
    33    16    17    2
    34    16    18   am
    35    18    19    1
    36    18    43    1
    37    19    20    1
    38    19    25    1
    39    19    21    1
    40    21    22    1
    41    21    44    1
    42    21    45    1
    43    22    23    1
    44    22    46    1
    45    22    47    1
    46    23    24    1
    47    23    48    1
    48    23    49    1
    49    24    25    1
    50    24    50    1
    51    24    51    1
    52    25    26    1
    53    25    27    1
    54    27    52    1
    55    27    53    1
    56    27    54    1
    57    28    55    1
    58    28    56    1
@<TRIPOS>SUBSTRUCTURE
     1 ZINC000195331548        1 TEMP              0 ****  ****    0 ROOT


##########                                Name:    ZINC001070580102
##########                DOCK_Rotatable_Bonds:                   8
##########                         Heavy_Atoms:                  25
##########                    Molecular_Weight:              349.39
##########                DOCK_Rotatable_Bonds:                   8
##########                       Formal_Charge:          -0.0100003
##########                     HBond_Acceptors:                   9
##########                        HBond_Donors:                   3
##########                         Heavy_Atoms:                  25
##########                          Grid_Score:          -29.578817
##########                     Grid_vdw_energy:          -28.892471
##########                      Grid_es_energy:           -0.686345
##########           Internal_energy_repulsive:           18.691435

@<TRIPOS>MOLECULE
ZINC001070580102
 48 50 1 0 0
SMALL
USER_CHARGES


@<TRIPOS>ATOM
      1 C1         -0.4812    3.6440   54.2246 C.3     1  ZINC001070580102   -0.0800
      2 C2         -1.4656    3.7343   55.3620 C.2     1  ZINC001070580102   -0.0100
      3 C3         -2.7856    3.9387   55.2341 C.2     1  ZINC001070580102   -0.1900
      4 C4         -3.3271    3.9501   56.6010 C.2     1  ZINC001070580102   -0.2500
      5 C5         -4.7329    4.1396   57.0008 C.2     1  ZINC001070580102    0.6000
      6 O6         -5.4287    4.9456   56.4134 O.2     1  ZINC001070580102   -0.5300
      7 N7         -5.2473    3.4194   58.0172 N.am    1  ZINC001070580102   -0.7200
      8 C8         -6.6443    3.6091   58.4157 C.3     1  ZINC001070580102    0.2000
      9 C9         -7.4942    2.5291   57.7972 C.2     1  ZINC001070580102    0.2600
     10 N10        -7.8312    2.4446   56.5359 N.2     1  ZINC001070580102   -0.5100
     11 C11        -8.5866    1.3644   56.3413 C.2     1  ZINC001070580102    0.2300
     12 C12        -9.1676    0.9284   55.0210 C.3     1  ZINC001070580102    0.1400
     13 H13        -9.3840    1.8055   54.4112 H       1  ZINC001070580102    0.0800
     14 C14       -10.4596    0.1440   55.2650 C.3     1  ZINC001070580102    0.0800
     15 O15       -10.9662   -0.3311   54.0149 O.3     1  ZINC001070580102   -0.3800
     16 C16       -10.0527   -1.1727   53.3058 C.3     1  ZINC001070580102    0.0600
     17 C17        -8.7567   -0.4016   53.0419 C.3     1  ZINC001070580102    0.0200
     18 N18        -8.2027    0.0690   54.3199 N.3     1  ZINC001070580102   -0.5200
     19 C19        -6.9262    0.7667   54.1152 C.3     1  ZINC001070580102    0.0600
     20 C20        -7.1162    1.8879   53.0916 C.3     1  ZINC001070580102    0.0800
     21 O21        -5.9897    2.7662   53.1326 O.3     1  ZINC001070580102   -0.5700
     22 N22        -8.7414    0.7438   57.4813 N.2     1  ZINC001070580102   -0.2700
     23 N23        -8.0333    1.4813   58.4442 N.pl3   1  ZINC001070580102   -0.4700
     24 C24        -2.2564    3.7479   57.4218 C.2     1  ZINC001070580102    0.0900
     25 C25        -2.3001    3.6773   58.9265 C.3     1  ZINC001070580102   -0.0900
     26 O26        -1.1629    3.6175   56.6644 O.3     1  ZINC001070580102   -0.1700
     27 H27         0.5185    3.4690   54.6222 H       1  ZINC001070580102    0.0800
     28 H28        -0.7600    2.8204   53.5672 H       1  ZINC001070580102    0.0900
     29 H29        -0.4900    4.5772   53.6615 H       1  ZINC001070580102    0.0900
     30 H30        -3.3375    4.0685   54.3149 H       1  ZINC001070580102    0.1500
     31 H31        -4.6927    2.7757   58.4850 H       1  ZINC001070580102    0.4000
     32 H32        -6.7228    3.5560   59.5016 H       1  ZINC001070580102    0.1000
     33 H33        -6.9905    4.5844   58.0736 H       1  ZINC001070580102    0.1100
     34 H34       -10.2531   -0.7028   55.9195 H       1  ZINC001070580102    0.0700
     35 H35       -11.1978    0.7951   55.7331 H       1  ZINC001070580102    0.1000
     36 H36        -9.8344   -2.0577   53.9034 H       1  ZINC001070580102    0.0600
     37 H37       -10.4967   -1.4738   52.3570 H       1  ZINC001070580102    0.1000
     38 H38        -8.0364   -1.0571   52.5523 H       1  ZINC001070580102    0.1200
     39 H39        -8.9665    0.4539   52.3999 H       1  ZINC001070580102    0.0400
     40 H40        -6.5884    1.1911   55.0605 H       1  ZINC001070580102    0.0500
     41 H41        -6.1815    0.0610   53.7469 H       1  ZINC001070580102    0.0800
     42 H42        -7.2056    1.4579   52.0941 H       1  ZINC001070580102    0.0500
     43 H43        -8.0215    2.4468   53.3288 H       1  ZINC001070580102    0.0600
     44 H44        -5.4026    2.6179   53.8866 H       1  ZINC001070580102    0.3800
     45 H45        -7.9544    1.2784   59.3895 H       1  ZINC001070580102    0.4400
     46 H46        -2.4624    2.6452   59.2372 H       1  ZINC001070580102    0.0900
     47 H47        -1.3548    4.0352   59.3346 H       1  ZINC001070580102    0.0800
     48 H48        -3.1145    4.3004   59.2959 H       1  ZINC001070580102    0.1100
@<TRIPOS>BOND
     1     1     2    1
     2     1    27    1
     3     1    28    1
     4     1    29    1
     5     2    26    1
     6     2     3    2
     7     3     4    1
     8     3    30    1
     9     4     5    1
    10     4    24    2
    11     5     6    2
    12     5     7   am
    13     7     8    1
    14     7    31    1
    15     8     9    1
    16     8    32    1
    17     8    33    1
    18     9    23    1
    19     9    10    2
    20    10    11    1
    21    11    12    1
    22    11    22    2
    23    12    13    1
    24    12    18    1
    25    12    14    1
    26    14    15    1
    27    14    34    1
    28    14    35    1
    29    15    16    1
    30    16    17    1
    31    16    36    1
    32    16    37    1
    33    17    18    1
    34    17    38    1
    35    17    39    1
    36    18    19    1
    37    19    20    1
    38    19    40    1
    39    19    41    1
    40    20    21    1
    41    20    42    1
    42    20    43    1
    43    21    44    1
    44    22    23    1
    45    23    45    1
    46    24    25    1
    47    24    26    1
    48    25    46    1
    49    25    47    1
    50    25    48    1
@<TRIPOS>SUBSTRUCTURE
     1 ZINC001070580102        1 TEMP              0 ****  ****    0 ROOT


##########                                Name:    ZINC000624498741
##########                DOCK_Rotatable_Bonds:                   7
##########                         Heavy_Atoms:                  27
##########                    Molecular_Weight:             379.339
##########                DOCK_Rotatable_Bonds:                   7
##########                       Formal_Charge:           0.0300003
##########                     HBond_Acceptors:                   9
##########                        HBond_Donors:                   0
##########                         Heavy_Atoms:                  27
##########                          Grid_Score:          -29.557455
##########                     Grid_vdw_energy:          -27.043640
##########                      Grid_es_energy:           -2.513816
##########           Internal_energy_repulsive:           10.947586

@<TRIPOS>MOLECULE
ZINC000624498741
 43 45 1 0 0
SMALL
USER_CHARGES


@<TRIPOS>ATOM
      1 C1        -10.2104   -1.5001   54.1920 C.3     1  ZINC000624498741   -0.1100
      2 C2         -9.9013   -0.5814   55.3461 C.ar    1  ZINC000624498741   -0.0900
      3 C3        -10.0556   -1.0269   56.6402 C.ar    1  ZINC000624498741   -0.0400
      4 C4         -9.7684   -0.1747   57.7093 C.ar    1  ZINC000624498741   -0.0500
      5 C5         -9.9321   -0.6484   59.0982 C.2     1  ZINC000624498741    0.2300
      6 N6         -9.5790   -0.0061   60.1984 N.2     1  ZINC000624498741   -0.4700
      7 C7         -9.9197   -0.8163   61.2127 C.2     1  ZINC000624498741    0.1800
      8 C8         -9.7231   -0.5355   62.6801 C.3     1  ZINC000624498741   -0.0300
      9 C9         -8.4305    0.2585   62.8788 C.3     1  ZINC000624498741   -0.1300
     10 C10        -8.1002    0.3303   64.3710 C.3     1  ZINC000624498741    0.0900
     11 N11        -9.0434    1.2318   65.0372 N.am    1  ZINC000624498741   -0.5000
     12 C12        -8.9177    2.5738   64.8747 C.2     1  ZINC000624498741    0.1300
     13 C13        -9.7768    3.4267   65.4803 C.2     1  ZINC000624498741   -0.2300
     14 C14       -10.8097    2.9256   66.2850 C.2     1  ZINC000624498741   -0.0200
     15 C15       -10.9345    1.5770   66.4467 C.2     1  ZINC000624498741   -0.2400
     16 C16       -10.0284    0.7198   65.7993 C.2     1  ZINC000624498741    0.5100
     17 O17       -10.1287   -0.4890   65.9354 O.2     1  ZINC000624498741   -0.5500
     18 N18       -10.4507   -1.8870   60.7002 N.2     1  ZINC000624498741   -0.3700
     19 O19       -10.4736   -1.8124   59.4900 O.3     1  ZINC000624498741    0.0900
     20 C20        -9.3257    1.1265   57.4608 C.ar    1  ZINC000624498741   -0.0200
     21 C21        -9.1739    1.5644   56.1633 C.ar    1  ZINC000624498741   -0.1900
     22 C22        -9.4555    0.7121   55.1030 C.ar    1  ZINC000624498741    0.1300
     23 O23        -9.3047    1.1476   53.8259 O.3     1  ZINC000624498741   -0.3000
     24 C24        -7.9689    1.3724   53.3705 C.3     1  ZINC000624498741    0.6000
     25 F25        -7.1696    0.2757   53.7103 F       1  ZINC000624498741   -0.1600
     26 F26        -7.9711    1.5350   51.9809 F       1  ZINC000624498741   -0.1300
     27 F27        -7.4584    2.5265   53.9743 F       1  ZINC000624498741   -0.1600
     28 H28        -9.3130   -2.0555   53.9193 H       1  ZINC000624498741    0.0800
     29 H29       -10.9951   -2.1982   54.4834 H       1  ZINC000624498741    0.0800
     30 H30       -10.5465   -0.9111   53.3387 H       1  ZINC000624498741    0.0800
     31 H31       -10.3986   -2.0336   56.8282 H       1  ZINC000624498741    0.1500
     32 H32       -10.5667    0.0439   63.0553 H       1  ZINC000624498741    0.1000
     33 H33        -9.6584   -1.4774   63.2248 H       1  ZINC000624498741    0.1000
     34 H34        -7.6156   -0.2356   62.3497 H       1  ZINC000624498741    0.0800
     35 H35        -8.5597    1.2672   62.4864 H       1  ZINC000624498741    0.0800
     36 H36        -8.1781   -0.6649   64.8086 H       1  ZINC000624498741    0.1100
     37 H37        -7.0852    0.7058   64.5008 H       1  ZINC000624498741    0.1000
     38 H38        -8.1239    2.9651   64.2558 H       1  ZINC000624498741    0.1600
     39 H39        -9.6663    4.4924   65.3440 H       1  ZINC000624498741    0.1500
     40 H40       -11.4987    3.6000   66.7717 H       1  ZINC000624498741    0.1400
     41 H41       -11.7238    1.1721   67.0627 H       1  ZINC000624498741    0.1500
     42 H42        -9.1030    1.7885   58.2846 H       1  ZINC000624498741    0.1500
     43 H43        -8.8319    2.5706   55.9703 H       1  ZINC000624498741    0.1500
@<TRIPOS>BOND
     1     1     2    1
     2     1    28    1
     3     1    29    1
     4     1    30    1
     5     2    22   ar
     6     2     3   ar
     7     3     4   ar
     8     3    31    1
     9     4     5    1
    10     4    20   ar
    11     5    19    1
    12     5     6    2
    13     6     7    1
    14     7     8    1
    15     7    18    2
    16     8     9    1
    17     8    32    1
    18     8    33    1
    19     9    10    1
    20     9    34    1
    21     9    35    1
    22    10    11    1
    23    10    36    1
    24    10    37    1
    25    11    16   am
    26    11    12    1
    27    12    13    2
    28    12    38    1
    29    13    14    1
    30    13    39    1
    31    14    15    2
    32    14    40    1
    33    15    16    1
    34    15    41    1
    35    16    17    2
    36    18    19    1
    37    20    21   ar
    38    20    42    1
    39    21    22   ar
    40    21    43    1
    41    22    23    1
    42    23    24    1
    43    24    25    1
    44    24    26    1
    45    24    27    1
@<TRIPOS>SUBSTRUCTURE
     1 ZINC000624498741        1 TEMP              0 ****  ****    0 ROOT


##########                                Name:    ZINC000647468483
##########                DOCK_Rotatable_Bonds:                   5
##########                         Heavy_Atoms:                  24
##########                    Molecular_Weight:             341.373
##########                DOCK_Rotatable_Bonds:                   5
##########                       Formal_Charge:           0.0300004
##########                     HBond_Acceptors:                   6
##########                        HBond_Donors:                   2
##########                         Heavy_Atoms:                  24
##########                          Grid_Score:          -29.534060
##########                     Grid_vdw_energy:          -22.147436
##########                      Grid_es_energy:           -7.386623
##########           Internal_energy_repulsive:           20.022053

@<TRIPOS>MOLECULE
ZINC000647468483
 46 48 1 0 0
SMALL
USER_CHARGES


@<TRIPOS>ATOM
      1 O1        -16.6623    1.2610   61.1361 O.co2   1  ZINC000647468483   -0.6800
      2 C2        -15.6214    0.7929   61.5649 C.2     1  ZINC000647468483    0.5000
      3 O3        -15.3508   -0.3786   61.3626 O.co2   1  ZINC000647468483   -0.6900
      4 C4        -14.6663    1.6639   62.3398 C.3     1  ZINC000647468483   -0.1500
      5 H5        -15.2105    2.4010   62.9302 H       1  ZINC000647468483    0.0800
      6 C6        -13.6602    2.3572   61.3880 C.3     1  ZINC000647468483   -0.1100
      7 C7        -12.4469    2.6746   62.2862 C.3     1  ZINC000647468483   -0.1400
      8 C8        -12.5018    1.6865   63.4645 C.3     1  ZINC000647468483    0.0100
      9 H9        -12.5939    2.2309   64.4043 H       1  ZINC000647468483    0.1400
     10 N10       -11.2905    0.8556   63.4813 N.4     1  ZINC000647468483   -0.5000
     11 H11       -11.4486    0.0422   64.0571 H       1  ZINC000647468483    0.4200
     12 H12       -11.0694    0.5642   62.5409 H       1  ZINC000647468483    0.4300
     13 C13       -10.1709    1.6332   64.0290 C.3     1  ZINC000647468483    0.0200
     14 H14       -10.3567    2.6990   63.8963 H       1  ZINC000647468483    0.1500
     15 C15        -9.9869    1.3121   65.5226 C.3     1  ZINC000647468483   -0.1400
     16 C16        -8.5672    0.7286   65.6762 C.3     1  ZINC000647468483   -0.1300
     17 C17        -8.2292    0.1761   64.2692 C.3     1  ZINC000647468483   -0.1300
     18 C18        -8.8568    1.2343   63.3262 C.3     1  ZINC000647468483   -0.0600
     19 H19        -8.1981    2.0974   63.2293 H       1  ZINC000647468483    0.1300
     20 C20        -9.1395    0.6337   61.9733 C.ar    1  ZINC000647468483   -0.1200
     21 C21        -9.7352   -0.6099   61.8800 C.ar    1  ZINC000647468483   -0.0700
     22 C22        -9.9945   -1.1610   60.6388 C.ar    1  ZINC000647468483   -0.1000
     23 C23        -9.6584   -0.4679   59.4912 C.ar    1  ZINC000647468483   -0.0600
     24 C24        -9.0633    0.7765   59.5845 C.ar    1  ZINC000647468483   -0.1600
     25 C25        -8.6964    1.5320   58.3331 C.3     1  ZINC000647468483    0.5000
     26 F26        -8.5634    0.6342   57.2686 F       1  ZINC000647468483   -0.1700
     27 F27        -9.7003    2.4605   58.0377 F       1  ZINC000647468483   -0.1700
     28 F28        -7.4848    2.2026   58.5317 F       1  ZINC000647468483   -0.1700
     29 C29        -8.8080    1.3292   60.8253 C.ar    1  ZINC000647468483   -0.1100
     30 C30       -13.7501    0.8036   63.2450 C.3     1  ZINC000647468483   -0.1200
     31 H31       -13.3718    1.6834   60.5812 H       1  ZINC000647468483    0.0800
     32 H32       -14.0872    3.2757   60.9850 H       1  ZINC000647468483    0.0800
     33 H33       -11.5218    2.5370   61.7263 H       1  ZINC000647468483    0.0700
     34 H34       -12.5123    3.6985   62.6541 H       1  ZINC000647468483    0.1000
     35 H35       -10.0825    2.2223   66.1147 H       1  ZINC000647468483    0.1000
     36 H36       -10.7283    0.5793   65.8411 H       1  ZINC000647468483    0.0900
     37 H37        -7.8619    1.5101   65.9587 H       1  ZINC000647468483    0.0800
     38 H38        -8.5627   -0.0751   66.4127 H       1  ZINC000647468483    0.0900
     39 H39        -7.1503    0.1214   64.1245 H       1  ZINC000647468483    0.0900
     40 H40        -8.6905   -0.7997   64.1163 H       1  ZINC000647468483    0.0800
     41 H41        -9.9978   -1.1514   62.7769 H       1  ZINC000647468483    0.1400
     42 H42       -10.4593   -2.1331   60.5661 H       1  ZINC000647468483    0.1500
     43 H43        -9.8602   -0.8987   58.5217 H       1  ZINC000647468483    0.1500
     44 H44        -8.3431    2.3014   60.8982 H       1  ZINC000647468483    0.1400
     45 H45       -14.2378    0.5892   64.1959 H       1  ZINC000647468483    0.0900
     46 H46       -13.4783   -0.1220   62.7374 H       1  ZINC000647468483    0.1000
@<TRIPOS>BOND
     1     1     2   ar
     2     2     3   ar
     3     2     4    1
     4     4     5    1
     5     4    30    1
     6     4     6    1
     7     6     7    1
     8     6    31    1
     9     6    32    1
    10     7     8    1
    11     7    33    1
    12     7    34    1
    13     8     9    1
    14     8    10    1
    15     8    30    1
    16    10    11    1
    17    10    12    1
    18    10    13    1
    19    13    14    1
    20    13    18    1
    21    13    15    1
    22    15    16    1
    23    15    35    1
    24    15    36    1
    25    16    17    1
    26    16    37    1
    27    16    38    1
    28    17    18    1
    29    17    39    1
    30    17    40    1
    31    18    19    1
    32    18    20    1
    33    20    29   ar
    34    20    21   ar
    35    21    22   ar
    36    21    41    1
    37    22    23   ar
    38    22    42    1
    39    23    24   ar
    40    23    43    1
    41    24    25    1
    42    24    29   ar
    43    25    26    1
    44    25    27    1
    45    25    28    1
    46    29    44    1
    47    30    45    1
    48    30    46    1
@<TRIPOS>SUBSTRUCTURE
     1 ZINC000647468483        1 TEMP              0 ****  ****    0 ROOT


##########                                Name:    ZINC001625935330
##########                DOCK_Rotatable_Bonds:                   5
##########                         Heavy_Atoms:                  25
##########                    Molecular_Weight:             327.385
##########                DOCK_Rotatable_Bonds:                   5
##########                       Formal_Charge:           0.0199995
##########                     HBond_Acceptors:                   4
##########                        HBond_Donors:                   1
##########                         Heavy_Atoms:                  25
##########                          Grid_Score:          -29.534006
##########                     Grid_vdw_energy:          -28.492311
##########                      Grid_es_energy:           -1.041695
##########           Internal_energy_repulsive:           15.856174

@<TRIPOS>MOLECULE
ZINC001625935330
 42 44 1 0 0
SMALL
USER_CHARGES


@<TRIPOS>ATOM
      1 C1         -6.9225    4.6221   52.6037 C.3     1  ZINC001625935330   -0.1600
      2 C2         -6.1978    3.2816   52.4660 C.3     1  ZINC001625935330    0.1800
      3 H3         -6.1397    3.0065   51.4129 H       1  ZINC001625935330    0.1000
      4 N4         -4.8449    3.3993   53.0154 N.am    1  ZINC001625935330   -0.7100
      5 C5         -3.8512    3.9035   52.2573 C.2     1  ZINC001625935330    0.5800
      6 O6         -4.0771    4.2592   51.1175 O.2     1  ZINC001625935330   -0.5300
      7 C7         -2.4832    4.0242   52.8135 C.ar    1  ZINC001625935330    0.0800
      8 C8         -2.2519    3.7067   54.1475 C.ar    1  ZINC001625935330   -0.1000
      9 C9         -0.9553    3.8257   54.6556 C.ar    1  ZINC001625935330    0.0000
     10 C10        -0.6598    3.4979   56.0722 C.ar    1  ZINC001625935330   -0.0600
     11 C11         0.6260    3.6781   56.5781 C.ar    1  ZINC001625935330   -0.1000
     12 C12         0.8952    3.3721   57.8967 C.ar    1  ZINC001625935330   -0.1200
     13 C13        -0.1087    2.8873   58.7157 C.ar    1  ZINC001625935330   -0.1100
     14 C14        -1.3870    2.7064   58.2187 C.ar    1  ZINC001625935330   -0.1200
     15 C15        -1.6685    3.0142   56.9032 C.ar    1  ZINC001625935330   -0.1000
     16 C16         0.0550    4.2610   53.7947 C.ar    1  ZINC001625935330   -0.1400
     17 C17        -0.2590    4.5568   52.4801 C.ar    1  ZINC001625935330    0.1100
     18 N18        -1.4890    4.4294   52.0316 N.ar    1  ZINC001625935330   -0.4600
     19 C19        -6.9562    2.2207   53.2213 C.ar    1  ZINC001625935330   -0.0900
     20 C20        -6.8889    2.1755   54.6023 C.ar    1  ZINC001625935330   -0.0800
     21 C21        -7.5820    1.2047   55.3037 C.ar    1  ZINC001625935330   -0.1100
     22 C22        -8.3458    0.2751   54.6293 C.ar    1  ZINC001625935330   -0.0700
     23 C23        -8.4186    0.3153   53.2353 C.ar    1  ZINC001625935330   -0.0200
     24 C24        -9.2097   -0.6466   52.5283 C.1     1  ZINC001625935330    0.2500
     25 N25        -9.8373   -1.4096   51.9676 N.1     1  ZINC001625935330   -0.4100
     26 C26        -7.7206    1.3004   52.5342 C.ar    1  ZINC001625935330   -0.0600
     27 H27        -7.9292    4.5346   52.1948 H       1  ZINC001625935330    0.0700
     28 H28        -6.9806    4.8972   53.6567 H       1  ZINC001625935330    0.0600
     29 H29        -6.3740    5.3894   52.0574 H       1  ZINC001625935330    0.0700
     30 H30        -4.6642    3.1144   53.9248 H       1  ZINC001625935330    0.4100
     31 H31        -3.0610    3.3738   54.7806 H       1  ZINC001625935330    0.1500
     32 H32         1.4106    4.0563   55.9394 H       1  ZINC001625935330    0.1300
     33 H33         1.8914    3.5111   58.2898 H       1  ZINC001625935330    0.1300
     34 H34         0.1064    2.6487   59.7468 H       1  ZINC001625935330    0.1300
     35 H35        -2.1668    2.3273   58.8624 H       1  ZINC001625935330    0.1300
     36 H36        -2.6669    2.8729   56.5163 H       1  ZINC001625935330    0.1300
     37 H37         1.0691    4.3656   54.1512 H       1  ZINC001625935330    0.1400
     38 H38         0.5187    4.8941   51.8108 H       1  ZINC001625935330    0.1700
     39 H39        -6.2922    2.9009   55.1354 H       1  ZINC001625935330    0.1300
     40 H40        -7.5245    1.1746   56.3818 H       1  ZINC001625935330    0.1400
     41 H41        -8.8860   -0.4822   55.1779 H       1  ZINC001625935330    0.1400
     42 H42        -7.7726    1.3370   51.4561 H       1  ZINC001625935330    0.1400
@<TRIPOS>BOND
     1     1     2    1
     2     1    27    1
     3     1    28    1
     4     1    29    1
     5     2     3    1
     6     2     4    1
     7     2    19    1
     8     4     5   am
     9     4    30    1
    10     5     6    2
    11     5     7    1
    12     7    18   ar
    13     7     8   ar
    14     8     9   ar
    15     8    31    1
    16     9    10    1
    17     9    16   ar
    18    10    15   ar
    19    10    11   ar
    20    11    12   ar
    21    11    32    1
    22    12    13   ar
    23    12    33    1
    24    13    14   ar
    25    13    34    1
    26    14    15   ar
    27    14    35    1
    28    15    36    1
    29    16    17   ar
    30    16    37    1
    31    17    18   ar
    32    17    38    1
    33    19    26   ar
    34    19    20   ar
    35    20    21   ar
    36    20    39    1
    37    21    22   ar
    38    21    40    1
    39    22    23   ar
    40    22    41    1
    41    23    24    1
    42    23    26   ar
    43    24    25    3
    44    26    42    1
@<TRIPOS>SUBSTRUCTURE
     1 ZINC001625935330        1 TEMP              0 ****  ****    0 ROOT


##########                                Name:    ZINC000509132103
##########                DOCK_Rotatable_Bonds:                   7
##########                         Heavy_Atoms:                  29
##########                    Molecular_Weight:              405.52
##########                DOCK_Rotatable_Bonds:                   7
##########                       Formal_Charge:          -0.0499998
##########                     HBond_Acceptors:                   6
##########                        HBond_Donors:                   0
##########                         Heavy_Atoms:                  29
##########                          Grid_Score:          -29.533297
##########                     Grid_vdw_energy:          -28.754099
##########                      Grid_es_energy:           -0.779198
##########           Internal_energy_repulsive:           15.412338

@<TRIPOS>MOLECULE
ZINC000509132103
 52 55 1 0 0
SMALL
USER_CHARGES


@<TRIPOS>ATOM
      1 C1        -10.3865    8.0595   48.1618 C.3     1  ZINC000509132103    0.0300
      2 O2         -9.1389    8.1634   48.8509 O.3     1  ZINC000509132103   -0.3000
      3 C3         -8.4531    7.0113   49.0604 C.ar    1  ZINC000509132103    0.2700
      4 C4         -8.9665    5.7997   48.6055 C.ar    1  ZINC000509132103   -0.1300
      5 C5         -8.2276    4.6507   48.8445 C.ar    1  ZINC000509132103   -0.0700
      6 C6         -7.0238    4.7790   49.5216 C.ar    1  ZINC000509132103    0.0500
      7 C7         -6.1846    3.5598   49.8049 C.3     1  ZINC000509132103   -0.0500
      8 S8         -6.2332    3.1914   51.5805 S.3     1  ZINC000509132103   -0.1500
      9 C9         -7.6236    2.0346   51.7193 C.3     1  ZINC000509132103   -0.1300
     10 C10        -7.6298    1.4195   53.0950 C.2     1  ZINC000509132103    0.5400
     11 O11        -6.8034    1.7595   53.9151 O.2     1  ZINC000509132103   -0.5100
     12 N12        -8.5537    0.4916   53.4142 N.am    1  ZINC000509132103   -0.6100
     13 C13        -9.5665    0.0589   52.4452 C.3     1  ZINC000509132103    0.1500
     14 C14       -10.9150   -0.0098   53.1168 C.ar    1  ZINC000509132103   -0.1000
     15 C15       -12.0334   -0.1637   52.3095 C.ar    1  ZINC000509132103   -0.1100
     16 C16       -13.2936   -0.2433   52.8662 C.ar    1  ZINC000509132103   -0.1200
     17 C17       -13.4424   -0.1706   54.2385 C.ar    1  ZINC000509132103   -0.1200
     18 C18       -12.3319   -0.0137   55.0417 C.ar    1  ZINC000509132103   -0.1100
     19 C19       -11.0625    0.0728   54.4836 C.ar    1  ZINC000509132103   -0.0600
     20 C20        -9.8999    0.2707   55.4203 C.3     1  ZINC000509132103   -0.0200
     21 H21        -9.8492    1.3197   55.7120 H       1  ZINC000509132103    0.1000
     22 C22       -10.1044   -0.5763   56.6499 C.ar    1  ZINC000509132103   -0.0800
     23 C23        -9.9375   -0.0231   57.9057 C.ar    1  ZINC000509132103   -0.1100
     24 C24       -10.1252   -0.8001   59.0336 C.ar    1  ZINC000509132103   -0.1200
     25 C25       -10.4799   -2.1300   58.9057 C.ar    1  ZINC000509132103   -0.1200
     26 C26       -10.6476   -2.6828   57.6498 C.ar    1  ZINC000509132103   -0.1200
     27 C27       -10.4642   -1.9048   56.5220 C.ar    1  ZINC000509132103   -0.1100
     28 C28        -8.5829   -0.1329   54.7471 C.3     1  ZINC000509132103    0.1200
     29 N29        -6.6138    5.9681   49.9168 N.ar    1  ZINC000509132103   -0.1900
     30 N30        -7.2909    7.0354   49.6933 N.ar    1  ZINC000509132103   -0.3000
     31 H31       -11.0609    7.4158   48.7265 H       1  ZINC000509132103    0.0600
     32 H32       -10.8295    9.0503   48.0609 H       1  ZINC000509132103    0.1000
     33 H33       -10.2208    7.6331   47.1724 H       1  ZINC000509132103    0.0600
     34 H34        -9.9107    5.7560   48.0830 H       1  ZINC000509132103    0.1600
     35 H35        -8.5793    3.6847   48.5137 H       1  ZINC000509132103    0.1600
     36 H36        -6.5779    2.7102   49.2467 H       1  ZINC000509132103    0.1100
     37 H37        -5.1549    3.7489   49.5012 H       1  ZINC000509132103    0.1000
     38 H38        -8.5590    2.5697   51.5563 H       1  ZINC000509132103    0.1100
     39 H39        -7.5190    1.2493   50.9706 H       1  ZINC000509132103    0.1100
     40 H40        -9.6076    0.7712   51.6211 H       1  ZINC000509132103    0.1000
     41 H41        -9.3025   -0.9259   52.0598 H       1  ZINC000509132103    0.0900
     42 H42       -11.9165   -0.2211   51.2374 H       1  ZINC000509132103    0.1200
     43 H43       -14.1599   -0.3622   52.2324 H       1  ZINC000509132103    0.1300
     44 H44       -14.4255   -0.2361   54.6807 H       1  ZINC000509132103    0.1200
     45 H45       -12.4502    0.0427   56.1136 H       1  ZINC000509132103    0.1200
     46 H46        -9.6604    1.0159   58.0057 H       1  ZINC000509132103    0.1200
     47 H47        -9.9941   -0.3681   60.0148 H       1  ZINC000509132103    0.1200
     48 H48       -10.6258   -2.7372   59.7868 H       1  ZINC000509132103    0.1200
     49 H49       -10.9245   -3.7220   57.5498 H       1  ZINC000509132103    0.1200
     50 H50       -10.5952   -2.3368   55.5408 H       1  ZINC000509132103    0.1200
     51 H51        -8.5342   -1.2177   54.6529 H       1  ZINC000509132103    0.0800
     52 H52        -7.7410    0.2246   55.3400 H       1  ZINC000509132103    0.1000
@<TRIPOS>BOND
     1     1     2    1
     2     1    31    1
     3     1    32    1
     4     1    33    1
     5     2     3    1
     6     3    30   ar
     7     3     4   ar
     8     4     5   ar
     9     4    34    1
    10     5     6   ar
    11     5    35    1
    12     6     7    1
    13     6    29   ar
    14     7     8    1
    15     7    36    1
    16     7    37    1
    17     8     9    1
    18     9    10    1
    19     9    38    1
    20     9    39    1
    21    10    11    2
    22    10    12   am
    23    12    28    1
    24    12    13    1
    25    13    14    1
    26    13    40    1
    27    13    41    1
    28    14    19   ar
    29    14    15   ar
    30    15    16   ar
    31    15    42    1
    32    16    17   ar
    33    16    43    1
    34    17    18   ar
    35    17    44    1
    36    18    19   ar
    37    18    45    1
    38    19    20    1
    39    20    21    1
    40    20    22    1
    41    20    28    1
    42    22    27   ar
    43    22    23   ar
    44    23    24   ar
    45    23    46    1
    46    24    25   ar
    47    24    47    1
    48    25    26   ar
    49    25    48    1
    50    26    27   ar
    51    26    49    1
    52    27    50    1
    53    28    51    1
    54    28    52    1
    55    29    30   ar
@<TRIPOS>SUBSTRUCTURE
     1 ZINC000509132103        1 TEMP              0 ****  ****    0 ROOT


##########                                Name:    ZINC001341052241
##########                DOCK_Rotatable_Bonds:                   7
##########                         Heavy_Atoms:                  24
##########                    Molecular_Weight:             336.478
##########                DOCK_Rotatable_Bonds:                   7
##########                       Formal_Charge:         5.96046e-08
##########                     HBond_Acceptors:                   6
##########                        HBond_Donors:                   0
##########                         Heavy_Atoms:                  24
##########                          Grid_Score:          -29.529480
##########                     Grid_vdw_energy:          -28.890186
##########                      Grid_es_energy:           -0.639294
##########           Internal_energy_repulsive:            7.310380

@<TRIPOS>MOLECULE
ZINC001341052241
 56 58 1 0 0
SMALL
USER_CHARGES


@<TRIPOS>ATOM
      1 C1         -9.9859    2.1938   56.8992 C.3     1  ZINC001341052241   -0.1700
      2 C2         -8.9824    1.0397   56.8584 C.3     1  ZINC001341052241    0.1100
      3 N3         -9.6931   -0.2313   57.0178 N.pl3   1  ZINC001341052241   -0.4500
      4 C4        -10.0766   -1.0926   56.0274 C.2     1  ZINC001341052241    0.1800
      5 C5         -9.8450   -0.9138   54.5491 C.3     1  ZINC001341052241    0.1500
      6 O6        -11.0798   -1.0816   53.8498 O.3     1  ZINC001341052241   -0.3700
      7 C7        -11.6423    0.1384   53.3625 C.3     1  ZINC001341052241    0.0900
      8 C8        -13.0914   -0.1029   52.9355 C.3     1  ZINC001341052241   -0.1400
      9 C9        -13.6936    1.2033   52.4139 C.3     1  ZINC001341052241   -0.1200
     10 C10       -12.8831    1.6948   51.2128 C.3     1  ZINC001341052241   -0.1200
     11 C11       -11.4339    1.9360   51.6399 C.3     1  ZINC001341052241   -0.1200
     12 C12       -10.8317    0.6298   52.1615 C.3     1  ZINC001341052241   -0.1200
     13 N13       -10.6786   -2.0969   56.5988 N.2     1  ZINC001341052241   -0.2600
     14 N14       -10.6965   -1.9329   57.8734 N.2     1  ZINC001341052241   -0.3100
     15 C15       -10.1104   -0.8010   58.1854 C.2     1  ZINC001341052241    0.3500
     16 N16        -9.9417   -0.2847   59.4602 N.3     1  ZINC001341052241   -0.4600
     17 C17       -11.1637   -0.4446   60.2587 C.3     1  ZINC001341052241    0.0700
     18 C18       -10.9914    0.2630   61.6047 C.3     1  ZINC001341052241   -0.1100
     19 C19        -9.7940   -0.3407   62.3436 C.3     1  ZINC001341052241   -0.0900
     20 C20        -9.5793    0.4034   63.6631 C.3     1  ZINC001341052241    0.0700
     21 O21        -9.3444   -0.5408   64.7098 O.3     1  ZINC001341052241   -0.3900
     22 C22        -8.3329   -0.1414   65.6368 C.3     1  ZINC001341052241    0.0300
     23 C23        -8.5437   -0.2047   61.4702 C.3     1  ZINC001341052241   -0.1100
     24 C24        -8.7869   -0.8988   60.1281 C.3     1  ZINC001341052241    0.0700
     25 H25       -10.7132    2.0714   56.0966 H       1  ZINC001341052241    0.0600
     26 H26       -10.5012    2.1936   57.8597 H       1  ZINC001341052241    0.0700
     27 H27        -9.4582    3.1389   56.7703 H       1  ZINC001341052241    0.0800
     28 H28        -8.2612    1.1566   57.6673 H       1  ZINC001341052241    0.0900
     29 H29        -8.4597    1.0463   55.9019 H       1  ZINC001341052241    0.1000
     30 H30        -9.4539    0.0860   54.3609 H       1  ZINC001341052241    0.0900
     31 H31        -9.1267   -1.6563   54.2015 H       1  ZINC001341052241    0.0700
     32 H32       -11.6161    0.8908   54.1508 H       1  ZINC001341052241    0.0600
     33 H33       -13.1175   -0.8553   52.1472 H       1  ZINC001341052241    0.0700
     34 H34       -13.6688   -0.4529   53.7911 H       1  ZINC001341052241    0.0700
     35 H35       -13.6676    1.9557   53.2021 H       1  ZINC001341052241    0.0600
     36 H36       -14.7261    1.0314   52.1096 H       1  ZINC001341052241    0.0700
     37 H37       -13.3122    2.6253   50.8412 H       1  ZINC001341052241    0.0600
     38 H38       -12.9091    0.9423   50.4246 H       1  ZINC001341052241    0.0600
     39 H39       -11.4079    2.6885   52.4281 H       1  ZINC001341052241    0.0600
     40 H40       -10.8565    2.2861   50.7842 H       1  ZINC001341052241    0.0700
     41 H41        -9.7992    0.8017   52.4658 H       1  ZINC001341052241    0.0700
     42 H42       -10.8577   -0.1226   51.3732 H       1  ZINC001341052241    0.0700
     43 H43       -11.3513   -1.5050   60.4273 H       1  ZINC001341052241    0.0600
     44 H44       -12.0068   -0.0073   59.7239 H       1  ZINC001341052241    0.0800
     45 H45       -11.8927    0.1310   62.2032 H       1  ZINC001341052241    0.0800
     46 H46       -10.8175    1.3261   61.4373 H       1  ZINC001341052241    0.0800
     47 H47        -9.9848   -1.3945   62.5466 H       1  ZINC001341052241    0.0800
     48 H48       -10.4666    0.9917   63.8970 H       1  ZINC001341052241    0.0500
     49 H49        -8.7183    1.0654   63.5711 H       1  ZINC001341052241    0.0500
     50 H50        -7.3892   -0.0053   65.1086 H       1  ZINC001341052241    0.0400
     51 H51        -8.2148   -0.9111   66.3995 H       1  ZINC001341052241    0.0900
     52 H52        -8.6234    0.7970   66.1094 H       1  ZINC001341052241    0.0400
     53 H53        -8.3313    0.8509   61.3008 H       1  ZINC001341052241    0.0700
     54 H54        -7.6963   -0.6709   61.9728 H       1  ZINC001341052241    0.0800
     55 H55        -8.9856   -1.9571   60.2973 H       1  ZINC001341052241    0.0600
     56 H56        -7.9037   -0.7914   59.4984 H       1  ZINC001341052241    0.0800
@<TRIPOS>BOND
     1     1     2    1
     2     1    25    1
     3     1    26    1
     4     1    27    1
     5     2     3    1
     6     2    28    1
     7     2    29    1
     8     3    15    1
     9     3     4    1
    10     4     5    1
    11     4    13    2
    12     5     6    1
    13     5    30    1
    14     5    31    1
    15     6     7    1
    16     7    12    1
    17     7     8    1
    18     7    32    1
    19     8     9    1
    20     8    33    1
    21     8    34    1
    22     9    10    1
    23     9    35    1
    24     9    36    1
    25    10    11    1
    26    10    37    1
    27    10    38    1
    28    11    12    1
    29    11    39    1
    30    11    40    1
    31    12    41    1
    32    12    42    1
    33    13    14    1
    34    14    15    2
    35    15    16    1
    36    16    24    1
    37    16    17    1
    38    17    18    1
    39    17    43    1
    40    17    44    1
    41    18    19    1
    42    18    45    1
    43    18    46    1
    44    19    20    1
    45    19    23    1
    46    19    47    1
    47    20    21    1
    48    20    48    1
    49    20    49    1
    50    21    22    1
    51    22    50    1
    52    22    51    1
    53    22    52    1
    54    23    24    1
    55    23    53    1
    56    23    54    1
    57    24    55    1
    58    24    56    1
@<TRIPOS>SUBSTRUCTURE
     1 ZINC001341052241        1 TEMP              0 ****  ****    0 ROOT


##########                                Name:    ZINC000188380122
##########                DOCK_Rotatable_Bonds:                   6
##########                         Heavy_Atoms:                  27
##########                    Molecular_Weight:             396.433
##########                DOCK_Rotatable_Bonds:                   6
##########                       Formal_Charge:           0.0299998
##########                     HBond_Acceptors:                   8
##########                        HBond_Donors:                   1
##########                         Heavy_Atoms:                  27
##########                          Grid_Score:          -29.525801
##########                     Grid_vdw_energy:          -28.514811
##########                      Grid_es_energy:           -1.010990
##########           Internal_energy_repulsive:            9.706215

@<TRIPOS>MOLECULE
ZINC000188380122
 46 49 1 0 0
SMALL
USER_CHARGES


@<TRIPOS>ATOM
      1 O1         -7.9813   -0.4269   59.5076 O.2     1  ZINC000188380122   -0.5200
      2 C2         -8.9829    0.2082   59.7614 C.2     1  ZINC000188380122    0.5200
      3 C3         -8.8763    1.6615   60.1456 C.3     1  ZINC000188380122   -0.0700
      4 C4         -8.0589    2.3953   59.1138 C.2     1  ZINC000188380122    0.0900
      5 C5         -7.2982    3.4491   59.4285 C.2     1  ZINC000188380122   -0.2400
      6 S6         -6.5100    4.0184   57.9585 S.3     1  ZINC000188380122    0.1000
      7 C7         -7.3079    2.7424   57.0424 C.2     1  ZINC000188380122    0.1100
      8 C8         -7.1596    2.5075   55.5901 C.ar    1  ZINC000188380122   -0.0200
      9 C9         -6.3004    3.3068   54.8353 C.ar    1  ZINC000188380122   -0.0400
     10 C10        -6.1661    3.0822   53.4805 C.ar    1  ZINC000188380122   -0.1200
     11 C11        -6.8814    2.0673   52.8704 C.ar    1  ZINC000188380122   -0.0600
     12 C12        -7.7351    1.2711   53.6134 C.ar    1  ZINC000188380122   -0.1800
     13 C13        -8.5100    0.1676   52.9405 C.3     1  ZINC000188380122    0.5100
     14 F14        -7.7352   -0.9970   52.9136 F       1  ZINC000188380122   -0.1700
     15 F15        -9.6905   -0.0739   53.6513 F       1  ZINC000188380122   -0.1700
     16 F16        -8.8237    0.5493   51.6315 F       1  ZINC000188380122   -0.1700
     17 C17        -7.8741    1.4817   54.9695 C.ar    1  ZINC000188380122   -0.0500
     18 N18        -8.0451    2.0360   57.8509 N.2     1  ZINC000188380122   -0.4300
     19 N19       -10.1916   -0.3842   59.6945 N.am    1  ZINC000188380122   -0.7200
     20 C20       -10.2952   -1.7969   59.3210 C.3     1  ZINC000188380122    0.1300
     21 H21        -9.4123   -2.3739   59.5961 H       1  ZINC000188380122    0.1200
     22 C22       -10.7497   -2.0196   57.8676 C.3     1  ZINC000188380122   -0.1800
     23 C23       -11.5850   -3.1868   58.4065 C.3     1  ZINC000188380122    0.0900
     24 H24       -11.0027   -4.1065   58.4646 H       1  ZINC000188380122    0.1200
     25 O25       -12.8159   -3.3973   57.7617 O.3     1  ZINC000188380122   -0.3700
     26 C26       -13.8483   -2.4388   57.9002 C.3     1  ZINC000188380122    0.0700
     27 C27       -14.0356   -2.0473   59.3652 C.3     1  ZINC000188380122   -0.1600
     28 C28       -12.7320   -1.4255   59.8758 C.3     1  ZINC000188380122   -0.1100
     29 C29       -11.6224   -2.4546   59.7506 C.3     1  ZINC000188380122   -0.1500
     30 H30       -11.5383   -3.1071   60.6197 H       1  ZINC000188380122    0.0900
     31 H31        -9.8739    2.0981   60.1963 H       1  ZINC000188380122    0.1100
     32 H32        -8.3930    1.7456   61.1189 H       1  ZINC000188380122    0.1100
     33 H33        -7.1865    3.8776   60.4135 H       1  ZINC000188380122    0.1800
     34 H34        -5.7420    4.0998   55.3104 H       1  ZINC000188380122    0.1500
     35 H35        -5.5014    3.7000   52.8951 H       1  ZINC000188380122    0.1400
     36 H36        -6.7732    1.8960   51.8096 H       1  ZINC000188380122    0.1500
     37 H37        -8.5407    0.8595   55.5483 H       1  ZINC000188380122    0.1400
     38 H38       -10.9929    0.1249   59.8937 H       1  ZINC000188380122    0.4000
     39 H39       -11.3478   -1.2017   57.4652 H       1  ZINC000188380122    0.0900
     40 H40        -9.9457   -2.3277   57.1993 H       1  ZINC000188380122    0.0800
     41 H41       -13.5929   -1.5509   57.3219 H       1  ZINC000188380122    0.0500
     42 H42       -14.7797   -2.8577   57.5194 H       1  ZINC000188380122    0.1000
     43 H43       -14.8446   -1.3217   59.4495 H       1  ZINC000188380122    0.0800
     44 H44       -14.2731   -2.9337   59.9534 H       1  ZINC000188380122    0.0800
     45 H45       -12.4867   -0.5483   59.2772 H       1  ZINC000188380122    0.0700
     46 H46       -12.8494   -1.1366   60.9201 H       1  ZINC000188380122    0.0800
@<TRIPOS>BOND
     1     1     2    2
     2     2     3    1
     3     2    19   am
     4     3     4    1
     5     3    31    1
     6     3    32    1
     7     4    18    1
     8     4     5    2
     9     5     6    1
    10     5    33    1
    11     6     7    1
    12     7     8    1
    13     7    18    2
    14     8    17   ar
    15     8     9   ar
    16     9    10   ar
    17     9    34    1
    18    10    11   ar
    19    10    35    1
    20    11    12   ar
    21    11    36    1
    22    12    13    1
    23    12    17   ar
    24    13    14    1
    25    13    15    1
    26    13    16    1
    27    17    37    1
    28    19    20    1
    29    19    38    1
    30    20    21    1
    31    20    29    1
    32    20    22    1
    33    22    23    1
    34    22    39    1
    35    22    40    1
    36    23    24    1
    37    23    29    1
    38    23    25    1
    39    25    26    1
    40    26    27    1
    41    26    41    1
    42    26    42    1
    43    27    28    1
    44    27    43    1
    45    27    44    1
    46    28    29    1
    47    28    45    1
    48    28    46    1
    49    29    30    1
@<TRIPOS>SUBSTRUCTURE
     1 ZINC000188380122        1 TEMP              0 ****  ****    0 ROOT


##########                                Name:    ZINC000750807956
##########                DOCK_Rotatable_Bonds:                  11
##########                         Heavy_Atoms:                  26
##########                    Molecular_Weight:             368.473
##########                DOCK_Rotatable_Bonds:                  11
##########                       Formal_Charge:        -8.12113e-07
##########                     HBond_Acceptors:                   7
##########                        HBond_Donors:                   1
##########                         Heavy_Atoms:                  26
##########                          Grid_Score:          -29.520088
##########                     Grid_vdw_energy:          -28.856810
##########                      Grid_es_energy:           -0.663279
##########           Internal_energy_repulsive:           74.848511

@<TRIPOS>MOLECULE
ZINC000750807956
 58 59 1 0 0
SMALL
USER_CHARGES


@<TRIPOS>ATOM
      1 C1        -11.8407    0.3391   51.8842 C.3     1  ZINC000750807956   -0.1500
      2 C2        -10.8192   -0.6375   52.4707 C.3     1  ZINC000750807956    0.0700
      3 O3        -10.5568   -0.2897   53.8557 O.3     1  ZINC000750807956   -0.3600
      4 C4         -9.2947    0.0392   54.1729 C.2     1  ZINC000750807956    0.4800
      5 O5         -8.4077   -0.7701   54.0388 O.2     1  ZINC000750807956   -0.4900
      6 C6         -8.9841    1.4178   54.6962 C.3     1  ZINC000750807956    0.1600
      7 H7         -9.7546    2.1155   54.3680 H       1  ZINC000750807956    0.1000
      8 C8         -7.6204    1.8728   54.1670 C.3     1  ZINC000750807956   -0.1300
      9 C9         -7.2482    3.2103   54.8110 C.3     1  ZINC000750807956   -0.1200
     10 C10        -7.1443    3.0368   56.3279 C.3     1  ZINC000750807956   -0.1400
     11 C11        -8.5027    2.5950   56.8815 C.3     1  ZINC000750807956    0.1100
     12 N12        -8.9391    1.3887   56.1645 N.am    1  ZINC000750807956   -0.6100
     13 C13        -9.2865    0.2759   56.8407 C.2     1  ZINC000750807956    0.5100
     14 O14        -9.6451   -0.7132   56.2373 O.2     1  ZINC000750807956   -0.5000
     15 C15        -9.2293    0.2604   58.3465 C.3     1  ZINC000750807956   -0.1400
     16 C16        -9.6957   -1.1031   58.8607 C.3     1  ZINC000750807956    0.2100
     17 H17        -9.3752   -1.8814   58.1683 H       1  ZINC000750807956    0.1000
     18 N18       -11.1570   -1.1124   58.9635 N.am    1  ZINC000750807956   -0.7000
     19 C19       -11.8285   -2.2800   58.9160 C.2     1  ZINC000750807956    0.6600
     20 O20       -11.2216   -3.3252   58.7895 O.2     1  ZINC000750807956   -0.5600
     21 O21       -13.1716   -2.2885   59.0089 O.3     1  ZINC000750807956   -0.3700
     22 C22       -13.9186   -2.0934   57.7791 C.3     1  ZINC000750807956    0.1400
     23 C23       -15.1915   -2.9416   57.8157 C.3     1  ZINC000750807956   -0.1800
     24 C24       -14.2936   -0.6168   57.6389 C.3     1  ZINC000750807956   -0.1400
     25 C25       -13.0580   -2.5165   56.5870 C.3     1  ZINC000750807956   -0.1800
     26 C26        -9.0857   -1.3641   60.2394 C.3     1  ZINC000750807956   -0.1800
     27 C27        -8.7893   -0.1501   61.1220 C.3     1  ZINC000750807956   -0.1700
     28 C28        -9.9576   -1.0772   61.4634 C.3     1  ZINC000750807956   -0.1800
     29 H29       -11.4445    1.3533   51.9353 H       1  ZINC000750807956    0.0600
     30 H30       -12.0376    0.0779   50.8444 H       1  ZINC000750807956    0.0800
     31 H31       -12.7674    0.2818   52.4550 H       1  ZINC000750807956    0.0700
     32 H32       -11.2153   -1.6517   52.4195 H       1  ZINC000750807956    0.0700
     33 H33        -9.8924   -0.5802   51.8998 H       1  ZINC000750807956    0.0600
     34 H34        -6.8660    1.1266   54.4164 H       1  ZINC000750807956    0.0800
     35 H35        -7.6713    1.9917   53.0848 H       1  ZINC000750807956    0.0800
     36 H36        -6.2895    3.5484   54.4176 H       1  ZINC000750807956    0.0800
     37 H37        -8.0156    3.9497   54.5818 H       1  ZINC000750807956    0.0700
     38 H38        -6.3944    2.2796   56.5570 H       1  ZINC000750807956    0.0700
     39 H39        -6.8564    3.9841   56.7837 H       1  ZINC000750807956    0.0800
     40 H40        -8.4096    2.3746   57.9449 H       1  ZINC000750807956    0.0900
     41 H41        -9.2336    3.3900   56.7337 H       1  ZINC000750807956    0.0800
     42 H42        -8.2052    0.4410   58.6731 H       1  ZINC000750807956    0.1200
     43 H43        -9.8799    1.0401   58.7428 H       1  ZINC000750807956    0.1100
     44 H44       -11.6414   -0.2782   59.0657 H       1  ZINC000750807956    0.4000
     45 H45       -15.8047   -2.6402   58.6649 H       1  ZINC000750807956    0.0600
     46 H46       -15.7522   -2.7952   56.8925 H       1  ZINC000750807956    0.0700
     47 H47       -14.9244   -3.9936   57.9155 H       1  ZINC000750807956    0.0900
     48 H48       -13.3868   -0.0125   57.6128 H       1  ZINC000750807956    0.0700
     49 H49       -14.8544   -0.4703   56.7157 H       1  ZINC000750807956    0.0800
     50 H50       -14.9068   -0.3153   58.4882 H       1  ZINC000750807956    0.0700
     51 H51       -12.7908   -3.5686   56.6869 H       1  ZINC000750807956    0.0900
     52 H52       -13.6188   -2.3701   55.6639 H       1  ZINC000750807956    0.0700
     53 H53       -12.1511   -1.9123   56.5609 H       1  ZINC000750807956    0.0600
     54 H54        -8.3990   -2.2086   60.2973 H       1  ZINC000750807956    0.1100
     55 H55        -7.9074   -0.1956   61.7609 H       1  ZINC000750807956    0.0900
     56 H56        -9.0290    0.8346   60.7205 H       1  ZINC000750807956    0.0900
     57 H57       -10.9658   -0.7024   61.2865 H       1  ZINC000750807956    0.1200
     58 H58        -9.8442   -1.7327   62.3268 H       1  ZINC000750807956    0.0900
@<TRIPOS>BOND
     1     1     2    1
     2     1    29    1
     3     1    30    1
     4     1    31    1
     5     2     3    1
     6     2    32    1
     7     2    33    1
     8     3     4    1
     9     4     5    2
    10     4     6    1
    11     6     7    1
    12     6    12    1
    13     6     8    1
    14     8     9    1
    15     8    34    1
    16     8    35    1
    17     9    10    1
    18     9    36    1
    19     9    37    1
    20    10    11    1
    21    10    38    1
    22    10    39    1
    23    11    12    1
    24    11    40    1
    25    11    41    1
    26    12    13   am
    27    13    14    2
    28    13    15    1
    29    15    16    1
    30    15    42    1
    31    15    43    1
    32    16    17    1
    33    16    18    1
    34    16    26    1
    35    18    19   am
    36    18    44    1
    37    19    20    2
    38    19    21    1
    39    21    22    1
    40    22    23    1
    41    22    24    1
    42    22    25    1
    43    23    45    1
    44    23    46    1
    45    23    47    1
    46    24    48    1
    47    24    49    1
    48    24    50    1
    49    25    51    1
    50    25    52    1
    51    25    53    1
    52    26    28    1
    53    26    27    1
    54    26    54    1
    55    27    28    1
    56    27    55    1
    57    27    56    1
    58    28    57    1
    59    28    58    1
@<TRIPOS>SUBSTRUCTURE
     1 ZINC000750807956        1 TEMP              0 ****  ****    0 ROOT


##########                                Name:    ZINC001500042809
##########                DOCK_Rotatable_Bonds:                   9
##########                         Heavy_Atoms:                  24
##########                    Molecular_Weight:              346.45
##########                DOCK_Rotatable_Bonds:                   9
##########                       Formal_Charge:           0.0200001
##########                     HBond_Acceptors:                   6
##########                        HBond_Donors:                   2
##########                         Heavy_Atoms:                  24
##########                          Grid_Score:          -29.486942
##########                     Grid_vdw_energy:          -28.064713
##########                      Grid_es_energy:           -1.422229
##########           Internal_energy_repulsive:           17.825932

@<TRIPOS>MOLECULE
ZINC001500042809
 46 47 1 0 0
SMALL
USER_CHARGES


@<TRIPOS>ATOM
      1 C1         -8.3758   -0.1858   64.0915 C.3     1  ZINC001500042809    0.0200
      2 O2         -9.2351    0.7326   63.4132 O.3     1  ZINC001500042809   -0.3100
      3 C3         -8.9646    0.9790   62.1063 C.ar    1  ZINC001500042809    0.1600
      4 C4         -8.6710    2.2727   61.6912 C.ar    1  ZINC001500042809   -0.1600
      5 C5         -8.3965    2.5269   60.3659 C.ar    1  ZINC001500042809   -0.0200
      6 C6         -8.4129    1.4822   59.4382 C.ar    1  ZINC001500042809   -0.1800
      7 C7         -8.1192    1.7503   58.0167 C.2     1  ZINC001500042809    0.5600
      8 O8         -7.0200    2.1531   57.6885 O.2     1  ZINC001500042809   -0.5300
      9 N9         -9.0696    1.5485   57.0826 N.am    1  ZINC001500042809   -0.7300
     10 C10        -8.7776    1.8130   55.6715 C.3     1  ZINC001500042809    0.1300
     11 C11        -8.2985    0.5246   54.9997 C.3     1  ZINC001500042809   -0.1200
     12 H12        -7.4180    0.1488   55.5209 H       1  ZINC001500042809    0.0900
     13 C13        -9.4110   -0.5242   55.0563 C.3     1  ZINC001500042809   -0.1500
     14 C14        -7.9429    0.8125   53.5397 C.3     1  ZINC001500042809    0.1300
     15 N15        -6.7727    1.6924   53.4866 N.am    1  ZINC001500042809   -0.7300
     16 C16        -6.6393    2.5762   52.4779 C.2     1  ZINC001500042809    0.5900
     17 O17        -7.4917    2.6443   51.6119 O.2     1  ZINC001500042809   -0.5200
     18 C18        -5.4676    3.4553   52.4238 C.2     1  ZINC001500042809   -0.2800
     19 C19        -5.1554    4.2975   51.3940 C.2     1  ZINC001500042809   -0.0100
     20 C20        -5.9969    4.4343   50.1513 C.3     1  ZINC001500042809   -0.1100
     21 C21        -3.9976    5.0081   51.6047 C.2     1  ZINC001500042809   -0.1500
     22 C22        -3.3814    4.7579   52.7659 C.2     1  ZINC001500042809   -0.2200
     23 S23        -4.2427    3.6005   53.6767 S.3     1  ZINC001500042809    0.1900
     24 C24        -8.7137    0.1840   59.8586 C.ar    1  ZINC001500042809   -0.0400
     25 C25        -8.9824   -0.0628   61.1864 C.ar    1  ZINC001500042809   -0.2200
     26 H26        -8.4170   -1.1557   63.5959 H       1  ZINC001500042809    0.0600
     27 H27        -7.3529    0.1901   64.0699 H       1  ZINC001500042809    0.0600
     28 H28        -8.7020   -0.2922   65.1261 H       1  ZINC001500042809    0.1000
     29 H29        -8.6585    3.0796   62.4089 H       1  ZINC001500042809    0.1400
     30 H30        -8.1692    3.5324   60.0441 H       1  ZINC001500042809    0.1400
     31 H31        -9.9469    1.2283   57.3446 H       1  ZINC001500042809    0.4000
     32 H32        -7.9991    2.5724   55.5977 H       1  ZINC001500042809    0.0800
     33 H33        -9.6801    2.1682   55.1741 H       1  ZINC001500042809    0.0800
     34 H34        -9.6644   -0.7293   56.0964 H       1  ZINC001500042809    0.0600
     35 H35       -10.2915   -0.1484   54.5351 H       1  ZINC001500042809    0.0600
     36 H36        -9.0697   -1.4421   54.5777 H       1  ZINC001500042809    0.0600
     37 H37        -7.7170   -0.1237   53.0294 H       1  ZINC001500042809    0.0800
     38 H38        -8.7860    1.2993   53.0496 H       1  ZINC001500042809    0.0800
     39 H39        -6.0939    1.6389   54.1775 H       1  ZINC001500042809    0.4000
     40 H40        -6.7410    5.2167   50.3006 H       1  ZINC001500042809    0.0800
     41 H41        -5.3587    4.6961   49.3073 H       1  ZINC001500042809    0.0700
     42 H42        -6.4997    3.4890   49.9472 H       1  ZINC001500042809    0.0900
     43 H43        -3.6132    5.7161   50.8855 H       1  ZINC001500042809    0.1500
     44 H44        -2.4636    5.2289   53.0857 H       1  ZINC001500042809    0.1700
     45 H45        -8.7317   -0.6254   59.1437 H       1  ZINC001500042809    0.1300
     46 H46        -9.2117   -1.0664   61.5127 H       1  ZINC001500042809    0.1400
@<TRIPOS>BOND
     1     1     2    1
     2     1    26    1
     3     1    27    1
     4     1    28    1
     5     2     3    1
     6     3    25   ar
     7     3     4   ar
     8     4     5   ar
     9     4    29    1
    10     5     6   ar
    11     5    30    1
    12     6     7    1
    13     6    24   ar
    14     7     8    2
    15     7     9   am
    16     9    10    1
    17     9    31    1
    18    10    11    1
    19    10    32    1
    20    10    33    1
    21    11    12    1
    22    11    13    1
    23    11    14    1
    24    13    34    1
    25    13    35    1
    26    13    36    1
    27    14    15    1
    28    14    37    1
    29    14    38    1
    30    15    16   am
    31    15    39    1
    32    16    17    2
    33    16    18    1
    34    18    23    1
    35    18    19    2
    36    19    20    1
    37    19    21    1
    38    20    40    1
    39    20    41    1
    40    20    42    1
    41    21    22    2
    42    21    43    1
    43    22    23    1
    44    22    44    1
    45    24    25   ar
    46    24    45    1
    47    25    46    1
@<TRIPOS>SUBSTRUCTURE
     1 ZINC001500042809        1 TEMP              0 ****  ****    0 ROOT


##########                                Name:    ZINC001300804061
##########                DOCK_Rotatable_Bonds:                   5
##########                         Heavy_Atoms:                  27
##########                    Molecular_Weight:              390.55
##########                DOCK_Rotatable_Bonds:                   5
##########                       Formal_Charge:                0.01
##########                     HBond_Acceptors:                   7
##########                        HBond_Donors:                   0
##########                         Heavy_Atoms:                  27
##########                          Grid_Score:          -29.484861
##########                     Grid_vdw_energy:          -29.476105
##########                      Grid_es_energy:           -0.008756
##########           Internal_energy_repulsive:           13.262353

@<TRIPOS>MOLECULE
ZINC001300804061
 57 60 1 0 0
SMALL
USER_CHARGES


@<TRIPOS>ATOM
      1 C1        -10.6669   -2.3169   58.8109 C.3     1  ZINC001300804061    0.0300
      2 O2         -9.4744   -1.6824   59.2771 O.3     1  ZINC001300804061   -0.3800
      3 C3         -9.5367   -0.2548   59.2750 C.3     1  ZINC001300804061    0.1000
      4 H4        -10.5565    0.0647   59.0604 H       1  ZINC001300804061    0.0700
      5 C5         -8.5926    0.2962   58.2040 C.3     1  ZINC001300804061    0.0500
      6 N6         -8.6404    1.7639   58.2156 N.3     1  ZINC001300804061   -0.4600
      7 C7         -7.8980    2.2928   57.1735 C.2     1  ZINC001300804061    0.3600
      8 N8         -6.6532    2.7064   57.2359 N.2     1  ZINC001300804061   -0.3000
      9 N9         -6.2718    3.1380   56.0871 N.2     1  ZINC001300804061   -0.2500
     10 C10        -7.2526    3.0260   55.2183 C.2     1  ZINC001300804061    0.2600
     11 C11        -7.2124    3.4104   53.7986 C.2     1  ZINC001300804061    0.0400
     12 C12        -6.3943    2.8773   52.8482 C.2     1  ZINC001300804061   -0.1300
     13 C13        -6.6929    3.5369   51.6403 C.2     1  ZINC001300804061   -0.2100
     14 C14        -7.6667    4.4297   51.9072 C.2     1  ZINC001300804061    0.0100
     15 C15        -8.3010    5.3623   50.9075 C.3     1  ZINC001300804061   -0.0800
     16 O16        -7.9824    4.3470   53.2102 O.3     1  ZINC001300804061   -0.1700
     17 N17        -8.3228    2.4755   55.8882 N.pl3   1  ZINC001300804061   -0.4600
     18 C18        -9.6437    2.1598   55.3389 C.3     1  ZINC001300804061    0.1200
     19 C19        -9.4826    1.2854   54.0937 C.3     1  ZINC001300804061   -0.1000
     20 H20        -8.9807    1.8568   53.3128 H       1  ZINC001300804061    0.0900
     21 C21       -10.8588    0.8509   53.5983 C.3     1  ZINC001300804061   -0.1200
     22 C22       -10.7575    0.2067   52.2189 C.3     1  ZINC001300804061   -0.1200
     23 C23       -10.0768   -1.1602   52.3293 C.3     1  ZINC001300804061   -0.0800
     24 S24        -8.3790   -0.9233   52.9329 S.3     1  ZINC001300804061   -0.2600
     25 C25        -8.6422    0.0542   54.4425 C.3     1  ZINC001300804061   -0.0700
     26 C26        -8.1907    2.2995   59.5068 C.3     1  ZINC001300804061    0.0600
     27 C27        -9.1228    1.8083   60.6168 C.3     1  ZINC001300804061   -0.1100
     28 C28        -9.1121    0.2775   60.6465 C.3     1  ZINC001300804061   -0.0900
     29 H29        -8.1070   -0.0754   60.8780 H       1  ZINC001300804061    0.0800
     30 C30       -10.0874   -0.2201   61.7152 C.3     1  ZINC001300804061   -0.1400
     31 H31       -11.5038   -2.0305   59.4480 H       1  ZINC001300804061    0.0400
     32 H32       -10.8674   -2.0052   57.7859 H       1  ZINC001300804061    0.0400
     33 H33       -10.5393   -3.3989   58.8433 H       1  ZINC001300804061    0.0900
     34 H34        -7.5752   -0.0356   58.4110 H       1  ZINC001300804061    0.0700
     35 H35        -8.9014   -0.0694   57.2246 H       1  ZINC001300804061    0.0800
     36 H36        -5.6589    2.0998   52.9933 H       1  ZINC001300804061    0.1600
     37 H37        -6.2291    3.3604   50.6811 H       1  ZINC001300804061    0.1600
     38 H38        -9.1645    4.8757   50.4538 H       1  ZINC001300804061    0.0900
     39 H39        -8.6213    6.2734   51.4129 H       1  ZINC001300804061    0.0800
     40 H40        -7.5760    5.6121   50.1328 H       1  ZINC001300804061    0.0900
     41 H41       -10.2292    1.6239   56.0859 H       1  ZINC001300804061    0.1100
     42 H42       -10.1558    3.0839   55.0702 H       1  ZINC001300804061    0.1000
     43 H43       -11.2823    0.1323   54.2999 H       1  ZINC001300804061    0.0700
     44 H44       -11.5111    1.7223   53.5405 H       1  ZINC001300804061    0.0800
     45 H45       -11.7575    0.0806   51.8040 H       1  ZINC001300804061    0.0800
     46 H46       -10.1730    0.8500   51.5611 H       1  ZINC001300804061    0.0800
     47 H47       -10.6290   -1.7877   53.0288 H       1  ZINC001300804061    0.0800
     48 H48       -10.0528   -1.6364   51.3491 H       1  ZINC001300804061    0.1100
     49 H49        -7.6801    0.3728   54.8437 H       1  ZINC001300804061    0.1000
     50 H50        -9.1664   -0.5506   55.1824 H       1  ZINC001300804061    0.0900
     51 H51        -7.1752    1.9583   59.7078 H       1  ZINC001300804061    0.0600
     52 H52        -8.2078    3.3890   59.4739 H       1  ZINC001300804061    0.0800
     53 H53        -8.7797    2.1934   61.5771 H       1  ZINC001300804061    0.0800
     54 H54       -10.1360    2.1609   60.4238 H       1  ZINC001300804061    0.0800
     55 H55       -11.0924    0.1313   61.4817 H       1  ZINC001300804061    0.0500
     56 H56       -10.0790   -1.3098   61.7356 H       1  ZINC001300804061    0.0600
     57 H57        -9.7855    0.1638   62.6896 H       1  ZINC001300804061    0.0600
@<TRIPOS>BOND
     1     1     2    1
     2     1    31    1
     3     1    32    1
     4     1    33    1
     5     2     3    1
     6     3     4    1
     7     3    28    1
     8     3     5    1
     9     5     6    1
    10     5    34    1
    11     5    35    1
    12     6     7    1
    13     6    26    1
    14     7    17    1
    15     7     8    2
    16     8     9    1
    17     9    10    2
    18    10    11    1
    19    10    17    1
    20    11    16    1
    21    11    12    2
    22    12    13    1
    23    12    36    1
    24    13    14    2
    25    13    37    1
    26    14    15    1
    27    14    16    1
    28    15    38    1
    29    15    39    1
    30    15    40    1
    31    17    18    1
    32    18    19    1
    33    18    41    1
    34    18    42    1
    35    19    20    1
    36    19    25    1
    37    19    21    1
    38    21    22    1
    39    21    43    1
    40    21    44    1
    41    22    23    1
    42    22    45    1
    43    22    46    1
    44    23    24    1
    45    23    47    1
    46    23    48    1
    47    24    25    1
    48    25    49    1
    49    25    50    1
    50    26    27    1
    51    26    51    1
    52    26    52    1
    53    27    28    1
    54    27    53    1
    55    27    54    1
    56    28    29    1
    57    28    30    1
    58    30    55    1
    59    30    56    1
    60    30    57    1
@<TRIPOS>SUBSTRUCTURE
     1 ZINC001300804061        1 TEMP              0 ****  ****    0 ROOT


##########                                Name:    ZINC000583220082
##########                DOCK_Rotatable_Bonds:                   9
##########                         Heavy_Atoms:                  29
##########                    Molecular_Weight:             417.492
##########                DOCK_Rotatable_Bonds:                   9
##########                       Formal_Charge:          -0.0400006
##########                     HBond_Acceptors:                  11
##########                        HBond_Donors:                   3
##########                         Heavy_Atoms:                  29
##########                          Grid_Score:          -29.460094
##########                     Grid_vdw_energy:          -27.797379
##########                      Grid_es_energy:           -1.662717
##########           Internal_energy_repulsive:           22.855587

@<TRIPOS>MOLECULE
ZINC000583220082
 52 54 1 0 0
SMALL
USER_CHARGES


@<TRIPOS>ATOM
      1 C1         -9.2970    4.3866   48.7047 C.3     1  ZINC000583220082    0.0800
      2 N2         -8.4542    5.5347   49.0477 N.am    1  ZINC000583220082   -0.6300
      3 C3         -8.9522    6.8968   48.8407 C.3     1  ZINC000583220082    0.0800
      4 C4         -7.2206    5.3379   49.5537 C.2     1  ZINC000583220082    0.5100
      5 O5         -6.5235    6.2884   49.8392 O.2     1  ZINC000583220082   -0.5300
      6 C6         -6.7077    3.9367   49.7650 C.3     1  ZINC000583220082   -0.1000
      7 C7         -6.7070    3.6188   51.2381 C.ar    1  ZINC000583220082   -0.0800
      8 C8         -7.9035    3.5371   51.9267 C.ar    1  ZINC000583220082   -0.0800
      9 C9         -7.9067    3.2459   53.2766 C.ar    1  ZINC000583220082   -0.1400
     10 C10        -6.7060    3.0342   53.9427 C.ar    1  ZINC000583220082    0.1400
     11 N11        -6.7055    2.7389   55.3084 N.am    1  ZINC000583220082   -0.6400
     12 C12        -7.0322    3.6916   56.2039 C.2     1  ZINC000583220082    0.5100
     13 O13        -7.3271    4.8061   55.8242 O.2     1  ZINC000583220082   -0.4900
     14 C14        -7.0316    3.3759   57.6638 C.2     1  ZINC000583220082    0.5100
     15 O15        -6.0432    3.5974   58.3322 O.2     1  ZINC000583220082   -0.5100
     16 N16        -8.1289    2.8452   58.2389 N.am    1  ZINC000583220082   -0.5800
     17 C17        -9.3352    2.5632   57.4461 C.3     1  ZINC000583220082    0.0600
     18 C18        -9.7638    1.1158   57.7099 C.3     1  ZINC000583220082    0.0300
     19 N19        -9.9086    0.9073   59.1568 N.3     1  ZINC000583220082   -0.4300
     20 C20       -10.4491   -0.3364   59.4266 C.2     1  ZINC000583220082    0.2900
     21 N21       -11.6143   -0.5996   59.9797 N.2     1  ZINC000583220082   -0.5700
     22 C22       -11.9217   -1.8703   60.1392 C.2     1  ZINC000583220082    0.5400
     23 N23       -13.1325   -2.2532   60.7147 N.pl3   1  ZINC000583220082   -0.8200
     24 N24       -11.0521   -2.7593   59.7389 N.2     1  ZINC000583220082   -0.5500
     25 S25        -9.7464   -1.8760   59.1047 S.3     1  ZINC000583220082    0.2000
     26 C26        -8.6269    1.0863   59.8519 C.3     1  ZINC000583220082    0.0500
     27 C27        -8.1496    2.5268   59.6747 C.3     1  ZINC000583220082    0.1100
     28 C28        -5.5058    3.1166   53.2477 C.ar    1  ZINC000583220082   -0.1200
     29 C29        -5.5104    3.4035   51.8969 C.ar    1  ZINC000583220082   -0.0800
     30 H30        -9.1163    4.0998   47.6686 H       1  ZINC000583220082    0.0500
     31 H31        -9.0559    3.5499   49.3605 H       1  ZINC000583220082    0.0800
     32 H32       -10.3459    4.6556   48.8296 H       1  ZINC000583220082    0.0700
     33 H33        -9.9602    6.8563   48.4277 H       1  ZINC000583220082    0.0800
     34 H34        -8.9711    7.4255   49.7937 H       1  ZINC000583220082    0.0600
     35 H35        -8.2961    7.4220   48.1467 H       1  ZINC000583220082    0.0600
     36 H36        -7.3523    3.2310   49.2413 H       1  ZINC000583220082    0.1000
     37 H37        -5.6924    3.8590   49.3761 H       1  ZINC000583220082    0.1000
     38 H38        -8.8366    3.7017   51.4083 H       1  ZINC000583220082    0.1300
     39 H39        -8.8414    3.1829   53.8139 H       1  ZINC000583220082    0.1300
     40 H40        -6.4699    1.8483   55.6120 H       1  ZINC000583220082    0.4200
     41 H41       -10.1352    3.2417   57.7426 H       1  ZINC000583220082    0.0900
     42 H42        -9.1155    2.6926   56.3864 H       1  ZINC000583220082    0.1700
     43 H43       -10.7170    0.9231   57.2175 H       1  ZINC000583220082    0.1100
     44 H44        -9.0076    0.4354   57.3184 H       1  ZINC000583220082    0.0700
     45 H45       -13.7889   -2.7351   60.1878 H       1  ZINC000583220082    0.4200
     46 H46       -13.3183   -2.0377   61.6420 H       1  ZINC000583220082    0.4200
     47 H47        -8.7556    0.8723   60.9130 H       1  ZINC000583220082    0.1100
     48 H48        -7.8866    0.4064   59.4304 H       1  ZINC000583220082    0.0600
     49 H49        -7.1475    2.6342   60.0896 H       1  ZINC000583220082    0.1100
     50 H50        -8.8345    3.2047   60.1841 H       1  ZINC000583220082    0.0900
     51 H51        -4.5706    2.9526   53.7625 H       1  ZINC000583220082    0.1400
     52 H52        -4.5778    3.4676   51.3560 H       1  ZINC000583220082    0.1300
@<TRIPOS>BOND
     1     1     2    1
     2     1    30    1
     3     1    31    1
     4     1    32    1
     5     2     3    1
     6     2     4   am
     7     3    33    1
     8     3    34    1
     9     3    35    1
    10     4     5    2
    11     4     6    1
    12     6     7    1
    13     6    36    1
    14     6    37    1
    15     7    29   ar
    16     7     8   ar
    17     8     9   ar
    18     8    38    1
    19     9    10   ar
    20     9    39    1
    21    10    11    1
    22    10    28   ar
    23    11    12   am
    24    11    40    1
    25    12    13    2
    26    12    14    1
    27    14    15    2
    28    14    16   am
    29    16    27    1
    30    16    17    1
    31    17    18    1
    32    17    41    1
    33    17    42    1
    34    18    19    1
    35    18    43    1
    36    18    44    1
    37    19    20    1
    38    19    26    1
    39    20    25    1
    40    20    21    2
    41    21    22    1
    42    22    23    1
    43    22    24    2
    44    23    45    1
    45    23    46    1
    46    24    25    1
    47    26    27    1
    48    26    47    1
    49    26    48    1
    50    27    49    1
    51    27    50    1
    52    28    29   ar
    53    28    51    1
    54    29    52    1
@<TRIPOS>SUBSTRUCTURE
     1 ZINC000583220082        1 TEMP              0 ****  ****    0 ROOT


##########                                Name:    ZINC001015666108
##########                DOCK_Rotatable_Bonds:                   7
##########                         Heavy_Atoms:                  25
##########                    Molecular_Weight:             346.429
##########                DOCK_Rotatable_Bonds:                   7
##########                       Formal_Charge:          -0.0199997
##########                     HBond_Acceptors:                   7
##########                        HBond_Donors:                   1
##########                         Heavy_Atoms:                  25
##########                          Grid_Score:          -29.451639
##########                     Grid_vdw_energy:          -30.381962
##########                      Grid_es_energy:            0.930323
##########           Internal_energy_repulsive:           15.744085

@<TRIPOS>MOLECULE
ZINC001015666108
 51 53 1 0 0
SMALL
USER_CHARGES


@<TRIPOS>ATOM
      1 C1         -8.7264   -0.3025   66.1547 C.3     1  ZINC001015666108   -0.1400
      2 C2         -9.1272    1.1741   66.1525 C.3     1  ZINC001015666108   -0.0700
      3 C3        -10.3690    1.3562   65.3185 C.2     1  ZINC001015666108   -0.0700
      4 C4        -10.4705    1.2089   63.9648 C.2     1  ZINC001015666108   -0.0900
      5 C5         -9.3812    0.8426   63.0537 C.2     1  ZINC001015666108    0.6100
      6 O6         -8.2290    1.1019   63.3477 O.2     1  ZINC001015666108   -0.5100
      7 N7         -9.6559    0.2187   61.8911 N.am    1  ZINC001015666108   -0.7200
      8 C8         -8.5676   -0.1488   60.9819 C.3     1  ZINC001015666108    0.1400
      9 H9         -7.6424   -0.2943   61.5395 H       1  ZINC001015666108    0.1100
     10 C10        -8.9311   -1.4328   60.2013 C.3     1  ZINC001015666108   -0.1300
     11 C11        -9.4731   -0.8804   58.8591 C.3     1  ZINC001015666108    0.0300
     12 N12        -8.5965    0.2888   58.5938 N.3     1  ZINC001015666108   -0.5100
     13 C13        -9.2284    1.2164   57.6462 C.3     1  ZINC001015666108    0.1700
     14 H14       -10.2688    1.3738   57.9308 H       1  ZINC001015666108    0.0900
     15 C15        -8.4856    2.5538   57.6693 C.3     1  ZINC001015666108   -0.1500
     16 C16        -9.1701    0.6333   56.2578 C.2     1  ZINC001015666108    0.1900
     17 N17       -10.1862    0.2098   55.5454 N.2     1  ZINC001015666108   -0.4800
     18 C18        -9.6602   -0.2209   54.3848 C.2     1  ZINC001015666108    0.1800
     19 C19       -10.4215   -0.8048   53.2228 C.3     1  ZINC001015666108    0.0000
     20 C20       -11.9176   -0.8077   53.5430 C.3     1  ZINC001015666108   -0.1500
     21 C21       -10.1693    0.0394   51.9720 C.3     1  ZINC001015666108   -0.1500
     22 N22        -8.3750   -0.0406   54.4495 N.2     1  ZINC001015666108   -0.3800
     23 O23        -8.0735    0.4545   55.5151 O.3     1  ZINC001015666108    0.1000
     24 C24        -8.3789    0.9380   59.9074 C.3     1  ZINC001015666108    0.0300
     25 O25       -11.7485    1.4592   63.6122 O.3     1  ZINC001015666108   -0.1700
     26 C26       -12.4602    1.7615   64.7057 C.2     1  ZINC001015666108    0.0000
     27 C27       -11.6469    1.7043   65.7833 C.2     1  ZINC001015666108   -0.2200
     28 H28        -7.8281   -0.4342   66.7580 H       1  ZINC001015666108    0.0600
     29 H29        -9.5367   -0.8982   66.5747 H       1  ZINC001015666108    0.0600
     30 H30        -8.5287   -0.6269   65.1331 H       1  ZINC001015666108    0.0500
     31 H31        -9.3248    1.4985   67.1742 H       1  ZINC001015666108    0.0900
     32 H32        -8.3168    1.7699   65.7325 H       1  ZINC001015666108    0.0700
     33 H33       -10.5744    0.0131   61.6563 H       1  ZINC001015666108    0.4000
     34 H34        -8.0461   -2.0474   60.0363 H       1  ZINC001015666108    0.0900
     35 H35        -9.7020   -1.9976   60.7255 H       1  ZINC001015666108    0.0800
     36 H36        -9.3724   -1.6240   58.0684 H       1  ZINC001015666108    0.0800
     37 H37       -10.5117   -0.5668   58.9636 H       1  ZINC001015666108    0.0500
     38 H38        -7.4452    2.3965   57.3848 H       1  ZINC001015666108    0.0800
     39 H39        -8.9545    3.2421   56.9662 H       1  ZINC001015666108    0.0700
     40 H40        -8.5278    2.9756   58.6735 H       1  ZINC001015666108    0.0800
     41 H41       -10.0860   -1.8266   53.0453 H       1  ZINC001015666108    0.1000
     42 H42       -12.2531    0.2140   53.7207 H       1  ZINC001015666108    0.0600
     43 H43       -12.4683   -1.2300   52.7026 H       1  ZINC001015666108    0.0700
     44 H44       -12.0973   -1.4091   54.4341 H       1  ZINC001015666108    0.0600
     45 H45       -10.5048    1.0612   52.1495 H       1  ZINC001015666108    0.0600
     46 H46        -9.1035    0.0414   51.7438 H       1  ZINC001015666108    0.0600
     47 H47       -10.7200   -0.3830   51.1315 H       1  ZINC001015666108    0.0700
     48 H48        -9.1082    1.7347   60.0531 H       1  ZINC001015666108    0.0600
     49 H49        -7.3680    1.3424   59.9587 H       1  ZINC001015666108    0.1000
     50 H50       -13.5119    2.0064   64.7237 H       1  ZINC001015666108    0.2100
     51 H51       -11.9261    1.8967   66.8087 H       1  ZINC001015666108    0.1600
@<TRIPOS>BOND
     1     1     2    1
     2     1    28    1
     3     1    29    1
     4     1    30    1
     5     2     3    1
     6     2    31    1
     7     2    32    1
     8     3    27    1
     9     3     4    2
    10     4     5    1
    11     4    25    1
    12     5     6    2
    13     5     7   am
    14     7     8    1
    15     7    33    1
    16     8     9    1
    17     8    24    1
    18     8    10    1
    19    10    11    1
    20    10    34    1
    21    10    35    1
    22    11    12    1
    23    11    36    1
    24    11    37    1
    25    12    13    1
    26    12    24    1
    27    13    14    1
    28    13    15    1
    29    13    16    1
    30    15    38    1
    31    15    39    1
    32    15    40    1
    33    16    23    1
    34    16    17    2
    35    17    18    1
    36    18    19    1
    37    18    22    2
    38    19    20    1
    39    19    21    1
    40    19    41    1
    41    20    42    1
    42    20    43    1
    43    20    44    1
    44    21    45    1
    45    21    46    1
    46    21    47    1
    47    22    23    1
    48    24    48    1
    49    24    49    1
    50    25    26    1
    51    26    27    2
    52    26    50    1
    53    27    51    1
@<TRIPOS>SUBSTRUCTURE
     1 ZINC001015666108        1 TEMP              0 ****  ****    0 ROOT


##########                                Name:    ZINC000842947763
##########                DOCK_Rotatable_Bonds:                   7
##########                         Heavy_Atoms:                  24
##########                    Molecular_Weight:             365.373
##########                DOCK_Rotatable_Bonds:                   7
##########                       Formal_Charge:          0.00999997
##########                     HBond_Acceptors:                   9
##########                        HBond_Donors:                   0
##########                         Heavy_Atoms:                  24
##########                          Grid_Score:          -29.436884
##########                     Grid_vdw_energy:          -28.325237
##########                      Grid_es_energy:           -1.111646
##########           Internal_energy_repulsive:           33.345531

@<TRIPOS>MOLECULE
ZINC000842947763
 42 43 1 0 0
SMALL
USER_CHARGES


@<TRIPOS>ATOM
      1 C1         -8.8899    0.6433   65.9291 C.3     1  ZINC000842947763   -0.1600
      2 C2         -9.1195    0.8658   64.4330 C.3     1  ZINC000842947763   -0.1000
      3 H3        -10.1235    0.5359   64.1664 H       1  ZINC000842947763    0.1000
      4 C4         -8.0902    0.0633   63.6342 C.3     1  ZINC000842947763    0.0800
      5 O5         -8.4049    0.1455   62.2191 O.3     1  ZINC000842947763   -0.3500
      6 C6         -9.3596   -0.6851   61.7555 C.2     1  ZINC000842947763    0.5200
      7 O7        -10.0236   -1.3417   62.5330 O.2     1  ZINC000842947763   -0.5100
      8 C8         -9.5979   -0.7973   60.3054 C.ar    1  ZINC000842947763   -0.1600
      9 C9         -9.0792    0.1620   59.4301 C.ar    1  ZINC000842947763   -0.0200
     10 C10        -9.3048    0.0515   58.0796 C.ar    1  ZINC000842947763   -0.1700
     11 C11       -10.0528   -1.0179   57.5721 C.ar    1  ZINC000842947763    0.2000
     12 C12       -10.5641   -1.9663   58.4503 C.ar    1  ZINC000842947763   -0.1500
     13 C13       -10.3396   -1.8666   59.7945 C.ar    1  ZINC000842947763   -0.0100
     14 C14       -11.3226   -3.0010   57.6486 C.3     1  ZINC000842947763   -0.0800
     15 C15       -11.1864   -2.5321   56.1908 C.3     1  ZINC000842947763    0.1100
     16 N16       -10.3882   -1.3053   56.2545 N.am    1  ZINC000842947763   -0.9400
     17 S17        -9.9493   -0.3920   54.9449 S.o2    1  ZINC000842947763    2.6100
     18 C18       -11.5230    0.1193   54.2016 C.3     1  ZINC000842947763   -0.6700
     19 O19        -9.2767    0.7265   55.5071 O.2     1  ZINC000842947763   -0.9300
     20 O20        -9.2689   -1.3040   54.0937 O.2     1  ZINC000842947763   -0.9400
     21 C21        -8.9687    2.3535   64.1095 C.3     1  ZINC000842947763   -0.1600
     22 C22       -10.3528    3.0002   64.0269 C.3     1  ZINC000842947763    0.4600
     23 F23       -10.2398    4.2725   63.4563 F       1  ZINC000842947763   -0.1800
     24 F24       -11.1917    2.2074   63.2363 F       1  ZINC000842947763   -0.1800
     25 F25       -10.8928    3.1121   65.3126 F       1  ZINC000842947763   -0.1800
     26 H26        -9.7038    1.0988   66.4932 H       1  ZINC000842947763    0.0700
     27 H27        -8.8580   -0.4263   66.1368 H       1  ZINC000842947763    0.0700
     28 H28        -7.9444    1.0989   66.2234 H       1  ZINC000842947763    0.0600
     29 H29        -7.0952    0.4723   63.8095 H       1  ZINC000842947763    0.0800
     30 H30        -8.1160   -0.9790   63.9523 H       1  ZINC000842947763    0.0800
     31 H31        -8.5020    0.9895   59.8156 H       1  ZINC000842947763    0.1500
     32 H32        -8.9030    0.7936   57.4054 H       1  ZINC000842947763    0.1500
     33 H33       -10.7429   -2.6114   60.4646 H       1  ZINC000842947763    0.1400
     34 H34       -10.8725   -3.9856   57.7754 H       1  ZINC000842947763    0.1000
     35 H35       -12.3711   -3.0196   57.9461 H       1  ZINC000842947763    0.1000
     36 H36       -10.6717   -3.2876   55.5971 H       1  ZINC000842947763    0.1000
     37 H37       -12.1689   -2.3223   55.7677 H       1  ZINC000842947763    0.0900
     38 H38       -12.0966    0.6969   54.9266 H       1  ZINC000842947763    0.1300
     39 H39       -11.3272    0.7325   53.3219 H       1  ZINC000842947763    0.1400
     40 H40       -12.0910   -0.7640   53.9097 H       1  ZINC000842947763    0.1300
     41 H41        -8.3872    2.8387   64.8934 H       1  ZINC000842947763    0.1200
     42 H42        -8.4568    2.4675   63.1539 H       1  ZINC000842947763    0.1100
@<TRIPOS>BOND
     1     1     2    1
     2     1    26    1
     3     1    27    1
     4     1    28    1
     5     2     3    1
     6     2     4    1
     7     2    21    1
     8     4     5    1
     9     4    29    1
    10     4    30    1
    11     5     6    1
    12     6     7    2
    13     6     8    1
    14     8    13   ar
    15     8     9   ar
    16     9    10   ar
    17     9    31    1
    18    10    11   ar
    19    10    32    1
    20    11    16    1
    21    11    12   ar
    22    12    13   ar
    23    12    14    1
    24    13    33    1
    25    14    15    1
    26    14    34    1
    27    14    35    1
    28    15    16    1
    29    15    36    1
    30    15    37    1
    31    16    17   am
    32    17    18    1
    33    17    19    2
    34    17    20    2
    35    18    38    1
    36    18    39    1
    37    18    40    1
    38    21    22    1
    39    21    41    1
    40    21    42    1
    41    22    23    1
    42    22    24    1
    43    22    25    1
@<TRIPOS>SUBSTRUCTURE
     1 ZINC000842947763        1 TEMP              0 ****  ****    0 ROOT


##########                                Name:    ZINC001284642199
##########                DOCK_Rotatable_Bonds:                   8
##########                         Heavy_Atoms:                  25
##########                    Molecular_Weight:             346.516
##########                DOCK_Rotatable_Bonds:                   8
##########                       Formal_Charge:         -3.8743e-07
##########                     HBond_Acceptors:                   5
##########                        HBond_Donors:                   2
##########                         Heavy_Atoms:                  25
##########                          Grid_Score:          -29.434381
##########                     Grid_vdw_energy:          -28.586346
##########                      Grid_es_energy:           -0.848036
##########           Internal_energy_repulsive:           21.860111

@<TRIPOS>MOLECULE
ZINC001284642199
 59 60 1 0 0
SMALL
USER_CHARGES


@<TRIPOS>ATOM
      1 C1         -8.1351    5.2947   49.3645 C.3     1  ZINC001284642199   -0.1100
      2 C2         -7.7180    4.4288   50.5252 C.ar    1  ZINC001284642199   -0.1900
      3 C3         -7.8834    4.8639   51.8307 C.ar    1  ZINC001284642199    0.1500
      4 N4         -7.5058    4.0759   52.8246 N.ar    1  ZINC001284642199   -0.4900
      5 C5         -6.9788    2.8919   52.5846 C.ar    1  ZINC001284642199    0.3100
      6 C6         -6.5618    2.0259   53.7454 C.3     1  ZINC001284642199    0.1300
      7 N7         -7.7491    1.3942   54.3363 N.3     1  ZINC001284642199   -0.6800
      8 C8         -8.2614    0.3235   53.4709 C.3     1  ZINC001284642199    0.0500
      9 C9         -9.5102   -0.2917   54.1056 C.3     1  ZINC001284642199    0.1600
     10 H10        -9.4020   -1.3757   54.1436 H       1  ZINC001284642199    0.1000
     11 N11        -9.6753    0.2306   55.4643 N.am    1  ZINC001284642199   -0.7200
     12 C12        -9.8988   -0.6158   56.4891 C.2     1  ZINC001284642199    0.5200
     13 O13        -9.9618   -1.8099   56.2867 O.2     1  ZINC001284642199   -0.5300
     14 C14       -10.0704   -0.0783   57.8865 C.3     1  ZINC001284642199   -0.1100
     15 H15       -10.9513    0.5626   57.9236 H       1  ZINC001284642199    0.0900
     16 C16       -10.2457   -1.2431   58.8629 C.3     1  ZINC001284642199   -0.1000
     17 C17       -10.4199   -0.6975   60.2816 C.3     1  ZINC001284642199   -0.1100
     18 C18        -9.1824    0.1133   60.6718 C.3     1  ZINC001284642199   -0.0900
     19 H19        -8.3016   -0.5277   60.6347 H       1  ZINC001284642199    0.0700
     20 C20        -9.3567    0.6590   62.0905 C.3     1  ZINC001284642199   -0.1500
     21 C21        -9.0072    1.2780   59.6954 C.3     1  ZINC001284642199   -0.1100
     22 C22        -8.8329    0.7324   58.2767 C.3     1  ZINC001284642199   -0.1100
     23 C23       -10.7386    0.0690   53.2678 C.3     1  ZINC001284642199   -0.0800
     24 C24       -10.8504    1.5907   53.1554 C.3     1  ZINC001284642199   -0.1400
     25 C25       -10.5983   -0.5368   51.8699 C.3     1  ZINC001284642199   -0.1400
     26 C26       -11.9956   -0.4864   53.9405 C.3     1  ZINC001284642199   -0.1300
     27 N27        -6.8020    2.4473   51.3566 N.ar    1  ZINC001284642199   -0.5100
     28 C28        -7.1603    3.1778   50.3129 C.ar    1  ZINC001284642199    0.1500
     29 H29        -7.2988    5.9253   49.0627 H       1  ZINC001284642199    0.0800
     30 H30        -8.4336    4.6625   48.5283 H       1  ZINC001284642199    0.0700
     31 H31        -8.9744    5.9228   49.6629 H       1  ZINC001284642199    0.0700
     32 H32        -8.3142    5.8331   52.0341 H       1  ZINC001284642199    0.1700
     33 H33        -6.0650    2.6398   54.4966 H       1  ZINC001284642199    0.1000
     34 H34        -5.8761    1.2545   53.3950 H       1  ZINC001284642199    0.0600
     35 H35        -8.4655    2.0786   54.5275 H       1  ZINC001284642199    0.3400
     36 H36        -7.4976   -0.4451   53.3528 H       1  ZINC001284642199    0.0900
     37 H37        -8.5158    0.7359   52.4945 H       1  ZINC001284642199    0.0400
     38 H38        -9.6237    1.1855   55.6264 H       1  ZINC001284642199    0.3900
     39 H39        -9.3649   -1.8841   58.8258 H       1  ZINC001284642199    0.0700
     40 H40       -11.1273   -1.8208   58.5850 H       1  ZINC001284642199    0.0700
     41 H41       -10.5448   -1.5273   60.9773 H       1  ZINC001284642199    0.0700
     42 H42       -11.3008   -0.0566   60.3189 H       1  ZINC001284642199    0.0600
     43 H43        -9.4815   -0.1709   62.7862 H       1  ZINC001284642199    0.0500
     44 H44        -8.4751    1.2366   62.3685 H       1  ZINC001284642199    0.0500
     45 H45       -10.2375    1.2999   62.1277 H       1  ZINC001284642199    0.0500
     46 H46        -9.8881    1.9190   59.7325 H       1  ZINC001284642199    0.0600
     47 H47        -8.1256    1.8557   59.9733 H       1  ZINC001284642199    0.0700
     48 H48        -7.9521    0.0915   58.2396 H       1  ZINC001284642199    0.0700
     49 H49        -8.7081    1.5622   57.5810 H       1  ZINC001284642199    0.0600
     50 H50        -9.9548    1.9864   52.6762 H       1  ZINC001284642199    0.0600
     51 H51       -11.7255    1.8477   52.5586 H       1  ZINC001284642199    0.0600
     52 H52       -10.9504    2.0222   54.1514 H       1  ZINC001284642199    0.0500
     53 H53       -10.5187   -1.6209   51.9499 H       1  ZINC001284642199    0.0600
     54 H54       -11.4734   -0.2798   51.2729 H       1  ZINC001284642199    0.0600
     55 H55        -9.7028   -0.1411   51.3907 H       1  ZINC001284642199    0.0600
     56 H56       -12.0956   -0.0549   54.9363 H       1  ZINC001284642199    0.0500
     57 H57       -12.8708   -0.2294   53.3435 H       1  ZINC001284642199    0.0500
     58 H58       -11.9161   -1.5705   54.0204 H       1  ZINC001284642199    0.0600
     59 H59        -7.0161    2.8060   49.3092 H       1  ZINC001284642199    0.1700
@<TRIPOS>BOND
     1     1     2    1
     2     1    29    1
     3     1    30    1
     4     1    31    1
     5     2    28   ar
     6     2     3   ar
     7     3     4   ar
     8     3    32    1
     9     4     5   ar
    10     5     6    1
    11     5    27   ar
    12     6     7    1
    13     6    33    1
    14     6    34    1
    15     7     8    1
    16     7    35    1
    17     8     9    1
    18     8    36    1
    19     8    37    1
    20     9    10    1
    21     9    11    1
    22     9    23    1
    23    11    12   am
    24    11    38    1
    25    12    13    2
    26    12    14    1
    27    14    15    1
    28    14    22    1
    29    14    16    1
    30    16    17    1
    31    16    39    1
    32    16    40    1
    33    17    18    1
    34    17    41    1
    35    17    42    1
    36    18    19    1
    37    18    20    1
    38    18    21    1
    39    20    43    1
    40    20    44    1
    41    20    45    1
    42    21    22    1
    43    21    46    1
    44    21    47    1
    45    22    48    1
    46    22    49    1
    47    23    24    1
    48    23    25    1
    49    23    26    1
    50    24    50    1
    51    24    51    1
    52    24    52    1
    53    25    53    1
    54    25    54    1
    55    25    55    1
    56    26    56    1
    57    26    57    1
    58    26    58    1
    59    27    28   ar
    60    28    59    1
@<TRIPOS>SUBSTRUCTURE
     1 ZINC001284642199        1 TEMP              0 ****  ****    0 ROOT


##########                                Name:    ZINC000185180600
##########                DOCK_Rotatable_Bonds:                   7
##########                         Heavy_Atoms:                  26
##########                    Molecular_Weight:             395.953
##########                DOCK_Rotatable_Bonds:                   7
##########                       Formal_Charge:          0.00999977
##########                     HBond_Acceptors:                   7
##########                        HBond_Donors:                   0
##########                         Heavy_Atoms:                  26
##########                          Grid_Score:          -29.395966
##########                     Grid_vdw_energy:          -28.091871
##########                      Grid_es_energy:           -1.304094
##########           Internal_energy_repulsive:           29.271589

@<TRIPOS>MOLECULE
ZINC000185180600
 52 53 1 0 0
SMALL
USER_CHARGES


@<TRIPOS>ATOM
      1 C1         -8.2281    0.0441   65.8019 C.3     1  ZINC000185180600   -0.1500
      2 C2         -8.6038    0.6702   64.4574 C.3     1  ZINC000185180600   -0.0900
      3 C3         -8.2115   -0.2806   63.3247 C.3     1  ZINC000185180600   -0.1500
      4 C4        -10.1128    0.9192   64.4146 C.3     1  ZINC000185180600   -0.1300
      5 C5        -10.5038    1.4452   63.0322 C.3     1  ZINC000185180600    0.1300
      6 H6        -10.3195    0.6739   62.2844 H       1  ZINC000185180600    0.1100
      7 C7         -9.6690    2.6845   62.7031 C.3     1  ZINC000185180600   -0.1600
      8 N8        -11.9255    1.7991   63.0285 N.am    1  ZINC000185180600   -0.6000
      9 C9        -12.3741    3.0358   63.6731 C.3     1  ZINC000185180600    0.0700
     10 C10       -12.8206    0.9870   62.4322 C.2     1  ZINC000185180600    0.5400
     11 O11       -13.9973    1.2807   62.4280 O.2     1  ZINC000185180600   -0.5300
     12 C12       -12.3594   -0.2862   61.7707 C.3     1  ZINC000185180600   -0.5000
     13 S13       -11.7947    0.0781   60.0857 S.o     1  ZINC000185180600    1.3200
     14 O14       -12.8861    0.5612   59.3144 O.2     1  ZINC000185180600   -0.8000
     15 C15       -11.2886   -1.5492   59.4643 C.3     1  ZINC000185180600   -0.3900
     16 C16       -10.7860   -1.4129   58.0501 C.2     1  ZINC000185180600    0.1000
     17 N17       -10.0656   -0.4246   57.5840 N.2     1  ZINC000185180600   -0.2800
     18 N18        -9.8065   -0.6721   56.2297 N.pl3   1  ZINC000185180600   -0.3200
     19 C19        -9.0661    0.1492   55.3676 C.ar    1  ZINC000185180600    0.1700
     20 C20        -9.2892    0.1000   53.9983 C.ar    1  ZINC000185180600   -0.1300
     21 C21        -8.5585    0.9098   53.1511 C.ar    1  ZINC000185180600   -0.0800
     22 C22        -7.6043    1.7697   53.6663 C.ar    1  ZINC000185180600   -0.0500
     23 Cl23       -6.6875    2.7865   52.5988 Cl      1  ZINC000185180600   -0.0600
     24 C24        -7.3803    1.8206   55.0309 C.ar    1  ZINC000185180600   -0.0800
     25 C25        -8.1127    1.0171   55.8826 C.ar    1  ZINC000185180600   -0.1100
     26 C26       -10.3971   -1.8432   55.9011 C.2     1  ZINC000185180600    0.0600
     27 C27       -11.0041   -2.3240   57.0110 C.2     1  ZINC000185180600   -0.2500
     28 H28        -7.1530   -0.1334   65.8324 H       1  ZINC000185180600    0.0500
     29 H29        -8.5075    0.7214   66.6089 H       1  ZINC000185180600    0.0600
     30 H30        -8.7560   -0.9019   65.9223 H       1  ZINC000185180600    0.0500
     31 H31        -8.0759    1.6162   64.3369 H       1  ZINC000185180600    0.0700
     32 H32        -7.1275   -0.3929   63.3035 H       1  ZINC000185180600    0.0500
     33 H33        -8.6743   -1.2535   63.4902 H       1  ZINC000185180600    0.0500
     34 H34        -8.5531    0.1272   62.3734 H       1  ZINC000185180600    0.0500
     35 H35       -10.6407   -0.0139   64.6111 H       1  ZINC000185180600    0.0700
     36 H36       -10.3813    1.6551   65.1726 H       1  ZINC000185180600    0.0800
     37 H37        -9.8533    3.4558   63.4509 H       1  ZINC000185180600    0.0600
     38 H38        -8.6113    2.4211   62.7058 H       1  ZINC000185180600    0.0700
     39 H39        -9.9476    3.0593   61.7182 H       1  ZINC000185180600    0.0600
     40 H40       -12.3568    3.8501   62.9486 H       1  ZINC000185180600    0.0600
     41 H41       -13.3896    2.9033   64.0464 H       1  ZINC000185180600    0.0700
     42 H42       -11.7098    3.2743   64.5036 H       1  ZINC000185180600    0.0800
     43 H43       -11.5384   -0.7167   62.3439 H       1  ZINC000185180600    0.1500
     44 H44       -13.1863   -0.9953   61.7314 H       1  ZINC000185180600    0.1200
     45 H45       -10.4944   -1.9482   60.0952 H       1  ZINC000185180600    0.1400
     46 H46       -12.1423   -2.2268   59.4827 H       1  ZINC000185180600    0.1000
     47 H47       -10.0332   -0.5715   53.5957 H       1  ZINC000185180600    0.1400
     48 H48        -8.7317    0.8718   52.0857 H       1  ZINC000185180600    0.1500
     49 H49        -6.6348    2.4922   55.4306 H       1  ZINC000185180600    0.1400
     50 H50        -7.9374    1.0572   56.9475 H       1  ZINC000185180600    0.1500
     51 H51       -10.3829   -2.3130   54.9286 H       1  ZINC000185180600    0.1800
     52 H52       -11.5643   -3.2447   57.0803 H       1  ZINC000185180600    0.1700
@<TRIPOS>BOND
     1     1     2    1
     2     1    28    1
     3     1    29    1
     4     1    30    1
     5     2     3    1
     6     2     4    1
     7     2    31    1
     8     3    32    1
     9     3    33    1
    10     3    34    1
    11     4     5    1
    12     4    35    1
    13     4    36    1
    14     5     6    1
    15     5     7    1
    16     5     8    1
    17     7    37    1
    18     7    38    1
    19     7    39    1
    20     8     9    1
    21     8    10   am
    22     9    40    1
    23     9    41    1
    24     9    42    1
    25    10    11    2
    26    10    12    1
    27    12    13    1
    28    12    43    1
    29    12    44    1
    30    13    14    2
    31    13    15    1
    32    15    16    1
    33    15    45    1
    34    15    46    1
    35    16    27    1
    36    16    17    2
    37    17    18    1
    38    18    19    1
    39    18    26    1
    40    19    25   ar
    41    19    20   ar
    42    20    21   ar
    43    20    47    1
    44    21    22   ar
    45    21    48    1
    46    22    23    1
    47    22    24   ar
    48    24    25   ar
    49    24    49    1
    50    25    50    1
    51    26    27    2
    52    26    51    1
    53    27    52    1
@<TRIPOS>SUBSTRUCTURE
     1 ZINC000185180600        1 TEMP              0 ****  ****    0 ROOT


##########                                Name:    ZINC001207290212
##########                DOCK_Rotatable_Bonds:                   8
##########                         Heavy_Atoms:                  23
##########                    Molecular_Weight:             344.435
##########                DOCK_Rotatable_Bonds:                   8
##########                       Formal_Charge:               -0.03
##########                     HBond_Acceptors:                   9
##########                        HBond_Donors:                   2
##########                         Heavy_Atoms:                  23
##########                          Grid_Score:          -29.393484
##########                     Grid_vdw_energy:          -28.530504
##########                      Grid_es_energy:           -0.862980
##########           Internal_energy_repulsive:            5.792733

@<TRIPOS>MOLECULE
ZINC001207290212
 47 48 1 0 0
SMALL
USER_CHARGES


@<TRIPOS>ATOM
      1 C1         -9.4248    1.2025   61.5721 C.3     1  ZINC001207290212   -0.1500
      2 C2        -10.1236    0.4815   60.4176 C.3     1  ZINC001207290212   -0.6300
      3 S3         -8.9311   -0.5814   59.5582 S.o2    1  ZINC001207290212    2.6100
      4 O4         -8.1297    0.1851   58.6697 O.2     1  ZINC001207290212   -0.9500
      5 O5         -8.3426   -1.5046   60.4641 O.2     1  ZINC001207290212   -0.9500
      6 N6         -9.8599   -1.5228   58.5615 N.am    1  ZINC001207290212   -1.1100
      7 C7        -10.6984   -0.8979   57.5357 C.3     1  ZINC001207290212    0.0900
      8 C8        -10.0137   -0.9989   56.1969 C.2     1  ZINC001207290212    0.5100
      9 O9         -9.8544   -2.0834   55.6777 O.2     1  ZINC001207290212   -0.5300
     10 N10        -9.5784    0.1156   55.5769 N.am    1  ZINC001207290212   -0.7200
     11 C11        -8.9144    0.0176   54.2747 C.3     1  ZINC001207290212    0.1400
     12 H12        -8.5000   -0.9810   54.1363 H       1  ZINC001207290212    0.1000
     13 C13        -7.8034    1.0777   54.1600 C.3     1  ZINC001207290212    0.0200
     14 N14        -8.1718    1.9731   53.0420 N.3     1  ZINC001207290212   -0.5100
     15 C15        -6.9770    2.4441   52.3290 C.3     1  ZINC001207290212    0.1300
     16 C16        -7.3245    3.6666   51.5192 C.2     1  ZINC001207290212    0.0000
     17 C17        -7.2460    4.9415   51.9350 C.2     1  ZINC001207290212   -0.0700
     18 O18        -7.6456    5.7185   50.9092 O.3     1  ZINC001207290212   -0.2000
     19 C19        -7.9612    4.9136   49.8858 C.2     1  ZINC001207290212    0.1900
     20 C20        -8.4567    5.3636   48.5356 C.3     1  ZINC001207290212   -0.0600
     21 N21        -7.7633    3.6782   50.2481 N.2     1  ZINC001207290212   -0.4700
     22 C22        -9.0422    1.1673   52.1479 C.3     1  ZINC001207290212    0.0400
     23 C23        -9.9095    0.3478   53.1386 C.3     1  ZINC001207290212   -0.1000
     24 H24       -10.7373    0.9488   53.5150 H       1  ZINC001207290212    0.0900
     25 C25       -10.4282   -0.9297   52.4754 C.3     1  ZINC001207290212   -0.1400
     26 H26        -9.0243    0.4674   62.2703 H       1  ZINC001207290212    0.0700
     27 H27        -8.6111    1.8125   61.1801 H       1  ZINC001207290212    0.0700
     28 H28       -10.1414    1.8412   62.0885 H       1  ZINC001207290212    0.0800
     29 H29       -10.9375   -0.1284   60.8096 H       1  ZINC001207290212    0.1300
     30 H30       -10.5242    1.2166   59.7195 H       1  ZINC001207290212    0.1300
     31 H31        -9.8486   -2.4881   58.6570 H       1  ZINC001207290212    0.4300
     32 H32       -11.6601   -1.4092   57.4914 H       1  ZINC001207290212    0.1000
     33 H33       -10.8560    0.1515   57.7848 H       1  ZINC001207290212    0.1100
     34 H34        -9.7047    0.9828   55.9928 H       1  ZINC001207290212    0.4100
     35 H35        -7.7376    1.6483   55.0865 H       1  ZINC001207290212    0.0800
     36 H36        -6.8492    0.5946   53.9498 H       1  ZINC001207290212    0.0500
     37 H37        -6.1990    2.6950   53.0500 H       1  ZINC001207290212    0.0600
     38 H38        -6.6170    1.6585   51.6647 H       1  ZINC001207290212    0.1000
     39 H39        -6.9237    5.2801   52.9087 H       1  ZINC001207290212    0.2100
     40 H40        -8.5207    6.4516   48.5162 H       1  ZINC001207290212    0.0900
     41 H41        -7.7646    5.0267   47.7638 H       1  ZINC001207290212    0.1000
     42 H42        -9.4429    4.9382   48.3501 H       1  ZINC001207290212    0.1000
     43 H43        -9.6675    1.8152   51.5336 H       1  ZINC001207290212    0.0900
     44 H44        -8.4434    0.5043   51.5234 H       1  ZINC001207290212    0.0500
     45 H45        -9.5850   -1.5298   52.1334 H       1  ZINC001207290212    0.0600
     46 H46       -11.0126   -1.5017   53.1960 H       1  ZINC001207290212    0.0600
     47 H47       -11.0567   -0.6677   51.6242 H       1  ZINC001207290212    0.0600
@<TRIPOS>BOND
     1     1     2    1
     2     1    26    1
     3     1    27    1
     4     1    28    1
     5     2     3    1
     6     2    29    1
     7     2    30    1
     8     3     4    2
     9     3     5    2
    10     3     6   am
    11     6     7    1
    12     6    31    1
    13     7     8    1
    14     7    32    1
    15     7    33    1
    16     8     9    2
    17     8    10   am
    18    10    11    1
    19    10    34    1
    20    11    12    1
    21    11    23    1
    22    11    13    1
    23    13    14    1
    24    13    35    1
    25    13    36    1
    26    14    15    1
    27    14    22    1
    28    15    16    1
    29    15    37    1
    30    15    38    1
    31    16    21    1
    32    16    17    2
    33    17    18    1
    34    17    39    1
    35    18    19    1
    36    19    20    1
    37    19    21    2
    38    20    40    1
    39    20    41    1
    40    20    42    1
    41    22    23    1
    42    22    43    1
    43    22    44    1
    44    23    24    1
    45    23    25    1
    46    25    45    1
    47    25    46    1
    48    25    47    1
@<TRIPOS>SUBSTRUCTURE
     1 ZINC001207290212        1 TEMP              0 ****  ****    0 ROOT


##########                                Name:    ZINC000057429281
##########                DOCK_Rotatable_Bonds:                  10
##########                         Heavy_Atoms:                  23
##########                    Molecular_Weight:             331.295
##########                DOCK_Rotatable_Bonds:                  10
##########                       Formal_Charge:          -0.0100002
##########                     HBond_Acceptors:                   9
##########                        HBond_Donors:                   5
##########                         Heavy_Atoms:                  23
##########                          Grid_Score:          -29.386351
##########                     Grid_vdw_energy:          -29.978060
##########                      Grid_es_energy:            0.591709
##########           Internal_energy_repulsive:           12.371999

@<TRIPOS>MOLECULE
ZINC000057429281
 39 39 1 0 0
SMALL
USER_CHARGES


@<TRIPOS>ATOM
      1 C1         -9.5991    0.0580   58.8257 C.3     1  ZINC000057429281   -0.1500
      2 C2        -10.5936   -0.3883   59.8993 C.3     1  ZINC000057429281   -0.0400
      3 H3        -11.0625    0.4879   60.3470 H       1  ZINC000057429281    0.0900
      4 C4         -9.8558   -1.1804   60.9804 C.3     1  ZINC000057429281   -0.1300
      5 C5         -9.4208   -0.2454   62.0794 C.2     1  ZINC000057429281    0.5200
      6 O6         -9.0993    0.8936   61.8146 O.2     1  ZINC000057429281   -0.5300
      7 N7         -9.3892   -0.6749   63.3565 N.am    1  ZINC000057429281   -0.7000
      8 C8         -8.9647    0.2334   64.4246 C.3     1  ZINC000057429281    0.1100
      9 C9         -9.7662   -0.0460   65.6699 C.2     1  ZINC000057429281    0.5200
     10 N10       -10.6930    0.8388   66.0873 N.am    1  ZINC000057429281   -0.8500
     11 O11        -9.5771   -1.0672   66.2962 O.2     1  ZINC000057429281   -0.5100
     12 C12        -7.5004    0.0219   64.7116 C.2     1  ZINC000057429281    0.5300
     13 N13        -7.0406    0.1177   65.9749 N.am    1  ZINC000057429281   -0.8400
     14 O14        -6.7358   -0.2347   63.8059 O.2     1  ZINC000057429281   -0.5100
     15 C15       -11.6519   -1.2592   59.2727 C.ar    1  ZINC000057429281   -0.0500
     16 C16       -11.2883   -2.3999   58.5818 C.ar    1  ZINC000057429281   -0.1200
     17 C17       -12.2591   -3.1988   58.0070 C.ar    1  ZINC000057429281   -0.0700
     18 C18       -13.5935   -2.8571   58.1235 C.ar    1  ZINC000057429281   -0.1900
     19 C19       -14.6518   -3.7278   57.4966 C.3     1  ZINC000057429281    0.5100
     20 F20       -14.2506   -5.0667   57.5575 F       1  ZINC000057429281   -0.1800
     21 F21       -15.8565   -3.5699   58.1899 F       1  ZINC000057429281   -0.1800
     22 F22       -14.8306   -3.3550   56.1600 F       1  ZINC000057429281   -0.1800
     23 C23       -13.9571   -1.7172   58.8155 C.ar    1  ZINC000057429281   -0.0700
     24 C24       -12.9867   -0.9203   59.3936 C.ar    1  ZINC000057429281   -0.1100
     25 H25       -10.1248    0.6223   58.0555 H       1  ZINC000057429281    0.0600
     26 H26        -8.8336    0.6879   59.2789 H       1  ZINC000057429281    0.0800
     27 H27        -9.1302   -0.8183   58.3779 H       1  ZINC000057429281    0.0500
     28 H28       -10.5204   -1.9401   61.3916 H       1  ZINC000057429281    0.1000
     29 H29        -8.9800   -1.6611   60.5447 H       1  ZINC000057429281    0.1000
     30 H30        -9.6475   -1.5856   63.5685 H       1  ZINC000057429281    0.4200
     31 H31        -9.1282    1.2644   64.1110 H       1  ZINC000057429281    0.1300
     32 H32       -11.2090    0.6590   66.8888 H       1  ZINC000057429281    0.4000
     33 H33       -10.8440    1.6556   65.5864 H       1  ZINC000057429281    0.4100
     34 H34        -6.0982   -0.0185   66.1597 H       1  ZINC000057429281    0.4000
     35 H35        -7.6522    0.3227   66.6994 H       1  ZINC000057429281    0.4100
     36 H36       -10.2458   -2.6669   58.4908 H       1  ZINC000057429281    0.1400
     37 H37       -11.9750   -4.0897   57.4667 H       1  ZINC000057429281    0.1400
     38 H38       -14.9997   -1.4504   58.9069 H       1  ZINC000057429281    0.1400
     39 H39       -13.2708   -0.0297   59.9343 H       1  ZINC000057429281    0.1400
@<TRIPOS>BOND
     1     1     2    1
     2     1    25    1
     3     1    26    1
     4     1    27    1
     5     2     3    1
     6     2     4    1
     7     2    15    1
     8     4     5    1
     9     4    28    1
    10     4    29    1
    11     5     6    2
    12     5     7   am
    13     7     8    1
    14     7    30    1
    15     8     9    1
    16     8    12    1
    17     8    31    1
    18     9    10   am
    19     9    11    2
    20    10    32    1
    21    10    33    1
    22    12    13   am
    23    12    14    2
    24    13    34    1
    25    13    35    1
    26    15    24   ar
    27    15    16   ar
    28    16    17   ar
    29    16    36    1
    30    17    18   ar
    31    17    37    1
    32    18    19    1
    33    18    23   ar
    34    19    20    1
    35    19    21    1
    36    19    22    1
    37    23    24   ar
    38    23    38    1
    39    24    39    1
@<TRIPOS>SUBSTRUCTURE
     1 ZINC000057429281        1 TEMP              0 ****  ****    0 ROOT


##########                                Name:    ZINC000821177065
##########                DOCK_Rotatable_Bonds:                  10
##########                         Heavy_Atoms:                  25
##########                    Molecular_Weight:             341.413
##########                DOCK_Rotatable_Bonds:                  10
##########                       Formal_Charge:          0.00999917
##########                     HBond_Acceptors:                   7
##########                        HBond_Donors:                   3
##########                         Heavy_Atoms:                  25
##########                          Grid_Score:          -29.382504
##########                     Grid_vdw_energy:          -28.760260
##########                      Grid_es_energy:           -0.622245
##########           Internal_energy_repulsive:           13.705465

@<TRIPOS>MOLECULE
ZINC000821177065
 48 51 1 0 0
SMALL
USER_CHARGES


@<TRIPOS>ATOM
      1 O1         -8.1630    0.3495   54.9889 O.2     1  ZINC000821177065   -0.5600
      2 C2         -7.7074    1.3242   55.5553 C.2     1  ZINC000821177065    0.7100
      3 N3         -6.9320    2.1951   54.8795 N.am    1  ZINC000821177065   -0.7300
      4 C4         -6.6332    1.9642   53.4639 C.3     1  ZINC000821177065    0.1200
      5 C5         -6.5327    3.3075   52.7382 C.3     1  ZINC000821177065    0.1900
      6 O6         -7.2915    4.2895   53.4466 O.3     1  ZINC000821177065   -0.5400
      7 C7         -5.0677    3.7438   52.6734 C.3     1  ZINC000821177065   -0.1500
      8 C8         -4.7747    5.2446   52.7267 C.3     1  ZINC000821177065   -0.1600
      9 C9         -4.4578    4.3599   53.9341 C.3     1  ZINC000821177065   -0.1700
     10 C10        -7.0850    3.1626   51.3186 C.3     1  ZINC000821177065   -0.1800
     11 C11        -8.4028    3.8704   50.9977 C.3     1  ZINC000821177065   -0.1900
     12 C12        -7.0877    4.4090   50.4311 C.3     1  ZINC000821177065   -0.1700
     13 N13        -7.9822    1.5367   56.8575 N.am    1  ZINC000821177065   -0.6500
     14 C14        -8.7889    0.6307   57.5605 C.2     1  ZINC000821177065    0.3200
     15 N15        -8.4978    0.0719   58.7114 N.2     1  ZINC000821177065   -0.3200
     16 N16        -9.5612   -0.7654   59.0718 N.pl3   1  ZINC000821177065   -0.3600
     17 C17        -9.6425   -1.5783   60.2879 C.3     1  ZINC000821177065    0.1900
     18 C18        -9.5889   -0.6803   61.4969 C.ar    1  ZINC000821177065    0.1100
     19 C19       -10.7504   -0.0979   61.9670 C.ar    1  ZINC000821177065   -0.1500
     20 C20       -10.6903    0.7264   63.0805 C.ar    1  ZINC000821177065   -0.0700
     21 C21        -9.4587    0.9346   63.6816 C.ar    1  ZINC000821177065   -0.1700
     22 C22        -8.3393    0.3180   63.1549 C.ar    1  ZINC000821177065    0.1000
     23 N23        -8.4347   -0.4637   62.0973 N.ar    1  ZINC000821177065   -0.4700
     24 C24       -10.4982   -0.6918   58.1032 C.2     1  ZINC000821177065    0.0700
     25 C25       -10.0520    0.1675   57.1590 C.2     1  ZINC000821177065   -0.2600
     26 H26        -6.5718    2.9749   55.3303 H       1  ZINC000821177065    0.4000
     27 H27        -5.6865    1.4314   53.3746 H       1  ZINC000821177065    0.0700
     28 H28        -7.4291    1.3685   53.0171 H       1  ZINC000821177065    0.0800
     29 H29        -6.9130    4.5380   54.3010 H       1  ZINC000821177065    0.3800
     30 H30        -4.4202    3.1260   52.0512 H       1  ZINC000821177065    0.1100
     31 H31        -3.9342    5.6144   52.1393 H       1  ZINC000821177065    0.0900
     32 H32        -5.6255    5.9209   52.8079 H       1  ZINC000821177065    0.1100
     33 H33        -5.1001    4.4542   54.8096 H       1  ZINC000821177065    0.1000
     34 H34        -3.4088    4.1477   54.1410 H       1  ZINC000821177065    0.0900
     35 H35        -6.8987    2.2026   50.8374 H       1  ZINC000821177065    0.1100
     36 H36        -9.0841    3.3759   50.3052 H       1  ZINC000821177065    0.1000
     37 H37        -8.8766    4.4392   51.7978 H       1  ZINC000821177065    0.1100
     38 H38        -6.6960    5.3320   50.8585 H       1  ZINC000821177065    0.0900
     39 H39        -6.9035    4.2687   49.3659 H       1  ZINC000821177065    0.1000
     40 H40        -7.6220    2.3164   57.3083 H       1  ZINC000821177065    0.4100
     41 H41       -10.5792   -2.1356   60.2905 H       1  ZINC000821177065    0.1000
     42 H42        -8.8049   -2.2754   60.3156 H       1  ZINC000821177065    0.1200
     43 H43       -11.6932   -0.2821   61.4733 H       1  ZINC000821177065    0.1400
     44 H44       -11.5819    1.1954   63.4700 H       1  ZINC000821177065    0.1400
     45 H45        -9.3746    1.5708   64.5503 H       1  ZINC000821177065    0.1400
     46 H46        -7.3760    0.4754   63.6170 H       1  ZINC000821177065    0.1600
     47 H47       -11.4392   -1.2215   58.0872 H       1  ZINC000821177065    0.1800
     48 H48       -10.5718    0.4428   56.2532 H       1  ZINC000821177065    0.1700
@<TRIPOS>BOND
     1     1     2    2
     2     2     3   am
     3     2    13   am
     4     3     4    1
     5     3    26    1
     6     4     5    1
     7     4    27    1
     8     4    28    1
     9     5     6    1
    10     5     7    1
    11     5    10    1
    12     6    29    1
    13     7     9    1
    14     7     8    1
    15     7    30    1
    16     8     9    1
    17     8    31    1
    18     8    32    1
    19     9    33    1
    20     9    34    1
    21    10    12    1
    22    10    11    1
    23    10    35    1
    24    11    12    1
    25    11    36    1
    26    11    37    1
    27    12    38    1
    28    12    39    1
    29    13    14    1
    30    13    40    1
    31    14    25    1
    32    14    15    2
    33    15    16    1
    34    16    17    1
    35    16    24    1
    36    17    18    1
    37    17    41    1
    38    17    42    1
    39    18    23   ar
    40    18    19   ar
    41    19    20   ar
    42    19    43    1
    43    20    21   ar
    44    20    44    1
    45    21    22   ar
    46    21    45    1
    47    22    23   ar
    48    22    46    1
    49    24    25    2
    50    24    47    1
    51    25    48    1
@<TRIPOS>SUBSTRUCTURE
     1 ZINC000821177065        1 TEMP              0 ****  ****    0 ROOT


##########                                Name:    ZINC000766421809
##########                DOCK_Rotatable_Bonds:                   7
##########                         Heavy_Atoms:                  26
##########                    Molecular_Weight:             358.372
##########                DOCK_Rotatable_Bonds:                   7
##########                       Formal_Charge:         4.61936e-07
##########                     HBond_Acceptors:                   8
##########                        HBond_Donors:                   0
##########                         Heavy_Atoms:                  26
##########                          Grid_Score:          -29.378197
##########                     Grid_vdw_energy:          -29.150934
##########                      Grid_es_energy:           -0.227262
##########           Internal_energy_repulsive:            4.320993

@<TRIPOS>MOLECULE
ZINC000766421809
 45 47 1 0 0
SMALL
USER_CHARGES


@<TRIPOS>ATOM
      1 C1        -10.3356   -0.5725   52.2050 C.3     1  ZINC000766421809   -0.0700
      2 C2        -11.0083   -0.9234   53.5072 C.2     1  ZINC000766421809    0.0700
      3 N3        -12.1917   -0.5199   53.8924 N.2     1  ZINC000766421809   -0.2900
      4 N4        -12.4497   -1.0648   55.1568 N.pl3   1  ZINC000766421809   -0.3700
      5 C5        -13.6647   -0.8638   55.9503 C.3     1  ZINC000766421809    0.1000
      6 C6        -11.3814   -1.8074   55.5151 C.2     1  ZINC000766421809    0.0700
      7 C7        -11.2253   -2.5773   56.8010 C.3     1  ZINC000766421809    0.1400
      8 O8        -10.8123   -1.6731   57.8593 O.3     1  ZINC000766421809   -0.3400
      9 C9        -10.6449   -2.2019   59.0817 C.2     1  ZINC000766421809    0.4700
     10 O10       -10.7304   -3.3967   59.2400 O.2     1  ZINC000766421809   -0.5000
     11 C11       -10.3503   -1.3053   60.2566 C.3     1  ZINC000766421809   -0.1100
     12 C12        -8.8412   -1.0722   60.3545 C.3     1  ZINC000766421809   -0.0200
     13 C13        -8.4960    0.2540   59.7275 C.2     1  ZINC000766421809    0.1900
     14 N14        -8.1756    0.4623   58.4748 N.2     1  ZINC000766421809   -0.4700
     15 C15        -7.9510    1.7920   58.3735 C.2     1  ZINC000766421809    0.2200
     16 C16        -7.5572    2.5280   57.1468 C.ar    1  ZINC000766421809   -0.0300
     17 C17        -7.3971    3.9117   57.1834 C.ar    1  ZINC000766421809   -0.0500
     18 C18        -7.0303    4.5922   56.0405 C.ar    1  ZINC000766421809   -0.1500
     19 C19        -6.8218    3.9016   54.8576 C.ar    1  ZINC000766421809    0.1200
     20 F20        -6.4632    4.5718   53.7407 F       1  ZINC000766421809   -0.1300
     21 C21        -6.9795    2.5254   54.8170 C.ar    1  ZINC000766421809   -0.1200
     22 C22        -6.7504    1.7796   53.5277 C.3     1  ZINC000766421809   -0.1200
     23 C23        -7.3409    1.8366   55.9562 C.ar    1  ZINC000766421809   -0.0600
     24 N24        -8.1465    2.3077   59.5594 N.2     1  ZINC000766421809   -0.3700
     25 O25        -8.4649    1.4395   60.3442 O.3     1  ZINC000766421809    0.0900
     26 C26       -10.4777   -1.7414   54.5100 C.2     1  ZINC000766421809   -0.2400
     27 H27       -10.6028   -1.3097   51.4479 H       1  ZINC000766421809    0.0800
     28 H28       -10.6630    0.4155   51.8815 H       1  ZINC000766421809    0.0700
     29 H29        -9.2545   -0.5697   52.3437 H       1  ZINC000766421809    0.0800
     30 H30       -14.3913   -1.6383   55.7048 H       1  ZINC000766421809    0.0800
     31 H31       -13.4193   -0.9190   57.0110 H       1  ZINC000766421809    0.0900
     32 H32       -14.0876    0.1154   55.7258 H       1  ZINC000766421809    0.0900
     33 H33       -12.1771   -3.0372   57.0669 H       1  ZINC000766421809    0.0900
     34 H34       -10.4709   -3.3531   56.6708 H       1  ZINC000766421809    0.0900
     35 H35       -10.8573   -0.3500   60.1209 H       1  ZINC000766421809    0.1200
     36 H36       -10.7049   -1.7781   61.1725 H       1  ZINC000766421809    0.1200
     37 H37        -8.5415   -1.0677   61.4024 H       1  ZINC000766421809    0.1200
     38 H38        -8.3156   -1.8700   59.8297 H       1  ZINC000766421809    0.1200
     39 H39        -7.5600    4.4508   58.1050 H       1  ZINC000766421809    0.1500
     40 H40        -6.9059    5.6646   56.0680 H       1  ZINC000766421809    0.1500
     41 H41        -5.7048    1.4790   53.4627 H       1  ZINC000766421809    0.0800
     42 H42        -7.3853    0.8939   53.5024 H       1  ZINC000766421809    0.0800
     43 H43        -6.9955    2.4264   52.6853 H       1  ZINC000766421809    0.0700
     44 H44        -7.4636    0.7641   55.9235 H       1  ZINC000766421809    0.1400
     45 H45        -9.5143   -2.2292   54.4887 H       1  ZINC000766421809    0.1500
@<TRIPOS>BOND
     1     1     2    1
     2     1    27    1
     3     1    28    1
     4     1    29    1
     5     2    26    1
     6     2     3    2
     7     3     4    1
     8     4     5    1
     9     4     6    1
    10     5    30    1
    11     5    31    1
    12     5    32    1
    13     6     7    1
    14     6    26    2
    15     7     8    1
    16     7    33    1
    17     7    34    1
    18     8     9    1
    19     9    10    2
    20     9    11    1
    21    11    12    1
    22    11    35    1
    23    11    36    1
    24    12    13    1
    25    12    37    1
    26    12    38    1
    27    13    25    1
    28    13    14    2
    29    14    15    1
    30    15    16    1
    31    15    24    2
    32    16    23   ar
    33    16    17   ar
    34    17    18   ar
    35    17    39    1
    36    18    19   ar
    37    18    40    1
    38    19    20    1
    39    19    21   ar
    40    21    22    1
    41    21    23   ar
    42    22    41    1
    43    22    42    1
    44    22    43    1
    45    23    44    1
    46    24    25    1
    47    26    45    1
@<TRIPOS>SUBSTRUCTURE
     1 ZINC000766421809        1 TEMP              0 ****  ****    0 ROOT


##########                                Name:    ZINC000492313853
##########                DOCK_Rotatable_Bonds:                   8
##########                         Heavy_Atoms:                  30
##########                    Molecular_Weight:             418.422
##########                DOCK_Rotatable_Bonds:                   8
##########                       Formal_Charge:          -0.0100008
##########                     HBond_Acceptors:                  10
##########                        HBond_Donors:                   2
##########                         Heavy_Atoms:                  30
##########                          Grid_Score:          -29.369602
##########                     Grid_vdw_energy:          -29.256378
##########                      Grid_es_energy:           -0.113224
##########           Internal_energy_repulsive:           12.949016

@<TRIPOS>MOLECULE
ZINC000492313853
 51 53 1 0 0
SMALL
USER_CHARGES


@<TRIPOS>ATOM
      1 C1         -0.4517    3.4379   64.3959 C.3     1  ZINC000492313853    0.0900
      2 N2         -0.4565    2.6674   63.1498 N.pl3   1  ZINC000492313853   -0.6200
      3 C3          0.0619    1.2973   63.1339 C.3     1  ZINC000492313853    0.1000
      4 C4         -0.9532    3.2362   61.9828 C.ar    1  ZINC000492313853    0.4100
      5 C5         -0.9612    2.4966   60.8048 C.ar    1  ZINC000492313853   -0.2400
      6 C6         -1.4589    3.0750   59.6508 C.ar    1  ZINC000492313853   -0.0100
      7 C7         -1.9334    4.3782   59.7141 C.ar    1  ZINC000492313853   -0.2300
      8 C8         -2.4850    5.0481   58.4821 C.3     1  ZINC000492313853    0.2000
      9 N9         -3.9452    5.1194   58.5772 N.am    1  ZINC000492313853   -0.7300
     10 C10        -4.6969    4.0645   58.2050 C.2     1  ZINC000492313853    0.7100
     11 O11        -4.1633    3.0532   57.7915 O.2     1  ZINC000492313853   -0.5600
     12 N12        -6.0404    4.1306   58.2910 N.am    1  ZINC000492313853   -0.6600
     13 C13        -6.8187    3.0394   57.9041 C.2     1  ZINC000492313853    0.3300
     14 C14        -7.4102    2.1419   58.7355 C.2     1  ZINC000492313853   -0.2600
     15 C15        -8.0972    1.2063   57.9396 C.2     1  ZINC000492313853    0.1200
     16 C16        -8.8834    0.0501   58.4374 C.ar    1  ZINC000492313853   -0.0100
     17 C17        -8.7591   -0.3611   59.7626 C.ar    1  ZINC000492313853   -0.0600
     18 C18        -9.4930   -1.4368   60.2206 C.ar    1  ZINC000492313853   -0.1200
     19 C19       -10.3506   -2.1059   59.3665 C.ar    1  ZINC000492313853   -0.0700
     20 C20       -10.4779   -1.7018   58.0495 C.ar    1  ZINC000492313853   -0.1900
     21 C21       -11.4147   -2.4354   57.1248 C.3     1  ZINC000492313853    0.5100
     22 F22       -12.4135   -1.5611   56.6828 F       1  ZINC000492313853   -0.1800
     23 F23       -10.6992   -2.9202   56.0247 F       1  ZINC000492313853   -0.1800
     24 F24       -12.0012   -3.5060   57.8082 F       1  ZINC000492313853   -0.1800
     25 C25        -9.7528   -0.6244   57.5825 C.ar    1  ZINC000492313853   -0.0400
     26 N26        -7.9213    1.5344   56.6772 N.2     1  ZINC000492313853   -0.2700
     27 N27        -7.1263    2.6863   56.6286 N.pl3   1  ZINC000492313853   -0.3900
     28 C28        -6.6939    3.3833   55.4146 C.3     1  ZINC000492313853    0.1000
     29 C29        -1.8953    5.0540   60.9175 C.ar    1  ZINC000492313853    0.1700
     30 N30        -1.4196    4.4755   62.0038 N.ar    1  ZINC000492313853   -0.5400
     31 H31         0.4865    3.9863   64.4803 H       1  ZINC000492313853    0.0600
     32 H32        -1.2844    4.1412   64.3914 H       1  ZINC000492313853    0.0700
     33 H33        -0.5536    2.7595   65.2430 H       1  ZINC000492313853    0.0700
     34 H34         0.4045    1.0267   64.1327 H       1  ZINC000492313853    0.0700
     35 H35        -0.7279    0.6134   62.8231 H       1  ZINC000492313853    0.0600
     36 H36         0.8950    1.2322   62.4340 H       1  ZINC000492313853    0.0600
     37 H37        -0.5838    1.4849   60.7911 H       1  ZINC000492313853    0.1300
     38 H38        -1.4774    2.5252   58.7214 H       1  ZINC000492313853    0.1400
     39 H39        -2.0765    6.0556   58.4027 H       1  ZINC000492313853    0.0800
     40 H40        -2.2060    4.4724   57.5997 H       1  ZINC000492313853    0.0800
     41 H41        -4.3709    5.9257   58.9081 H       1  ZINC000492313853    0.4000
     42 H42        -6.4661    4.9370   58.6220 H       1  ZINC000492313853    0.4100
     43 H43        -7.3614    2.1456   59.8143 H       1  ZINC000492313853    0.1800
     44 H44        -8.0894    0.1605   60.4303 H       1  ZINC000492313853    0.1400
     45 H45        -9.3973   -1.7567   61.2477 H       1  ZINC000492313853    0.1400
     46 H46       -10.9228   -2.9472   59.7287 H       1  ZINC000492313853    0.1400
     47 H47        -9.8530   -0.3097   56.5543 H       1  ZINC000492313853    0.1400
     48 H48        -7.4315    4.1401   55.1480 H       1  ZINC000492313853    0.0800
     49 H49        -5.7309    3.8615   55.5937 H       1  ZINC000492313853    0.0800
     50 H50        -6.5976    2.6665   54.5991 H       1  ZINC000492313853    0.1000
     51 H51        -2.2634    6.0679   60.9713 H       1  ZINC000492313853    0.1600
@<TRIPOS>BOND
     1     1     2    1
     2     1    31    1
     3     1    32    1
     4     1    33    1
     5     2     3    1
     6     2     4    1
     7     3    34    1
     8     3    35    1
     9     3    36    1
    10     4    30   ar
    11     4     5   ar
    12     5     6   ar
    13     5    37    1
    14     6     7   ar
    15     6    38    1
    16     7     8    1
    17     7    29   ar
    18     8     9    1
    19     8    39    1
    20     8    40    1
    21     9    10   am
    22     9    41    1
    23    10    11    2
    24    10    12   am
    25    12    13    1
    26    12    42    1
    27    13    27    1
    28    13    14    2
    29    14    15    1
    30    14    43    1
    31    15    16    1
    32    15    26    2
    33    16    25   ar
    34    16    17   ar
    35    17    18   ar
    36    17    44    1
    37    18    19   ar
    38    18    45    1
    39    19    20   ar
    40    19    46    1
    41    20    21    1
    42    20    25   ar
    43    21    22    1
    44    21    23    1
    45    21    24    1
    46    25    47    1
    47    26    27    1
    48    27    28    1
    49    28    48    1
    50    28    49    1
    51    28    50    1
    52    29    30   ar
    53    29    51    1
@<TRIPOS>SUBSTRUCTURE
     1 ZINC000492313853        1 TEMP              0 ****  ****    0 ROOT


##########                                Name:    ZINC001173835973
##########                DOCK_Rotatable_Bonds:                   4
##########                         Heavy_Atoms:                  26
##########                    Molecular_Weight:             343.388
##########                DOCK_Rotatable_Bonds:                   4
##########                       Formal_Charge:           -0.010001
##########                     HBond_Acceptors:                   6
##########                        HBond_Donors:                   4
##########                         Heavy_Atoms:                  26
##########                          Grid_Score:          -29.366533
##########                     Grid_vdw_energy:          -26.595270
##########                      Grid_es_energy:           -2.771263
##########           Internal_energy_repulsive:           12.996163

@<TRIPOS>MOLECULE
ZINC001173835973
 43 46 1 0 0
SMALL
USER_CHARGES


@<TRIPOS>ATOM
      1 C1         -7.5416    0.3455   66.5344 C.3     1  ZINC001173835973   -0.1700
      2 C2         -8.2945    0.3200   65.2292 C.2     1  ZINC001173835973    0.5100
      3 O3         -9.0288   -0.6101   64.9707 O.2     1  ZINC001173835973   -0.5200
      4 N4         -8.1520    1.3307   64.3492 N.am    1  ZINC001173835973   -0.6800
      5 C5         -8.8510    1.3071   63.1373 C.ar    1  ZINC001173835973    0.1800
      6 C6         -9.5484    2.4317   62.7149 C.ar    1  ZINC001173835973   -0.1900
      7 C7        -10.2392    2.4096   61.5181 C.ar    1  ZINC001173835973   -0.0600
      8 C8        -10.2383    1.2702   60.7376 C.ar    1  ZINC001173835973   -0.1900
      9 C9         -9.5423    0.1411   61.1544 C.ar    1  ZINC001173835973    0.2200
     10 N10        -9.5418   -1.0106   60.3652 N.pl3   1  ZINC001173835973   -0.6900
     11 C11       -10.2470   -1.0309   59.1562 C.ar    1  ZINC001173835973    0.0400
     12 C12       -11.3809   -1.7807   59.0466 C.ar    1  ZINC001173835973    0.2400
     13 N13       -11.8304   -2.5241   60.1439 N.pl3   1  ZINC001173835973   -0.8600
     14 C14       -12.1290   -1.8136   57.7947 C.ar    1  ZINC001173835973   -0.1100
     15 C15       -13.2975   -2.5834   57.6760 C.ar    1  ZINC001173835973   -0.0600
     16 C16       -13.9593   -2.5765   56.4780 C.ar    1  ZINC001173835973   -0.1700
     17 C17       -13.4676   -1.8194   55.4213 C.ar    1  ZINC001173835973    0.1200
     18 N18       -12.3737   -1.1018   55.5405 N.ar    1  ZINC001173835973   -0.4400
     19 C19       -11.6864   -1.0678   56.6799 C.ar    1  ZINC001173835973    0.1900
     20 C20       -10.4662   -0.2608   56.7977 C.ar    1  ZINC001173835973    0.1300
     21 N21       -10.0201    0.4545   55.7676 N.ar    1  ZINC001173835973   -0.4400
     22 C22        -8.9296    1.1812   55.8591 C.ar    1  ZINC001173835973    0.1000
     23 C23        -8.1902    1.2380   57.0343 C.ar    1  ZINC001173835973   -0.1500
     24 C24        -8.5970    0.5247   58.1295 C.ar    1  ZINC001173835973   -0.0700
     25 C25        -9.7668   -0.2450   58.0247 C.ar    1  ZINC001173835973   -0.0400
     26 C26        -8.8434    0.1622   62.3535 C.ar    1  ZINC001173835973   -0.1900
     27 H27        -7.7821   -0.5484   67.1101 H       1  ZINC001173835973    0.1000
     28 H28        -6.4703    0.3722   66.3354 H       1  ZINC001173835973    0.0900
     29 H29        -7.8280    1.2309   67.1018 H       1  ZINC001173835973    0.0900
     30 H30        -7.5648    2.0746   64.5559 H       1  ZINC001173835973    0.4100
     31 H31        -9.5512    3.3245   63.3228 H       1  ZINC001173835973    0.1200
     32 H32       -10.7812    3.2853   61.1926 H       1  ZINC001173835973    0.1200
     33 H33       -10.7791    1.2561   59.8029 H       1  ZINC001173835973    0.1200
     34 H34        -9.0527   -1.7967   60.6545 H       1  ZINC001173835973    0.4000
     35 H35       -11.3836   -2.4423   61.0009 H       1  ZINC001173835973    0.4100
     36 H36       -12.5889   -3.1210   60.0472 H       1  ZINC001173835973    0.4000
     37 H37       -13.6643   -3.1659   58.5083 H       1  ZINC001173835973    0.1400
     38 H38       -14.8608   -3.1582   56.3539 H       1  ZINC001173835973    0.1400
     39 H39       -13.9971   -1.8211   54.4801 H       1  ZINC001173835973    0.1700
     40 H40        -8.5997    1.7476   55.0006 H       1  ZINC001173835973    0.1600
     41 H41        -7.2969    1.8429   57.0834 H       1  ZINC001173835973    0.1400
     42 H42        -8.0351    0.5561   59.0513 H       1  ZINC001173835973    0.1400
     43 H43        -8.3016   -0.7133   62.6796 H       1  ZINC001173835973    0.1400
@<TRIPOS>BOND
     1     1     2    1
     2     1    27    1
     3     1    28    1
     4     1    29    1
     5     2     3    2
     6     2     4   am
     7     4     5    1
     8     4    30    1
     9     5    26   ar
    10     5     6   ar
    11     6     7   ar
    12     6    31    1
    13     7     8   ar
    14     7    32    1
    15     8     9   ar
    16     8    33    1
    17     9    10    1
    18     9    26   ar
    19    10    11    1
    20    10    34    1
    21    11    25   ar
    22    11    12   ar
    23    12    13    1
    24    12    14   ar
    25    13    35    1
    26    13    36    1
    27    14    19   ar
    28    14    15   ar
    29    15    16   ar
    30    15    37    1
    31    16    17   ar
    32    16    38    1
    33    17    18   ar
    34    17    39    1
    35    18    19   ar
    36    19    20   ar
    37    20    25   ar
    38    20    21   ar
    39    21    22   ar
    40    22    23   ar
    41    22    40    1
    42    23    24   ar
    43    23    41    1
    44    24    25   ar
    45    24    42    1
    46    26    43    1
@<TRIPOS>SUBSTRUCTURE
     1 ZINC001173835973        1 TEMP              0 ****  ****    0 ROOT


##########                                Name:    ZINC000182044395
##########                DOCK_Rotatable_Bonds:                   8
##########                         Heavy_Atoms:                  28
##########                    Molecular_Weight:             398.889
##########                DOCK_Rotatable_Bonds:                   8
##########                       Formal_Charge:          -0.0399999
##########                     HBond_Acceptors:                   6
##########                        HBond_Donors:                   2
##########                         Heavy_Atoms:                  28
##########                          Grid_Score:          -29.360359
##########                     Grid_vdw_energy:          -29.317720
##########                      Grid_es_energy:           -0.042639
##########           Internal_energy_repulsive:           17.967375

@<TRIPOS>MOLECULE
ZINC000182044395
 51 53 1 0 0
SMALL
USER_CHARGES


@<TRIPOS>ATOM
      1 C1         -9.4126   -1.3958   52.9667 C.3     1  ZINC000182044395   -0.1800
      2 C2        -10.1593   -0.2292   53.6167 C.3     1  ZINC000182044395    0.0800
      3 N3         -9.2638    0.4686   54.5427 N.pl3   1  ZINC000182044395   -0.4800
      4 C4         -9.4011    0.2472   55.8565 C.2     1  ZINC000182044395    0.2500
      5 C5         -8.5986    0.8641   56.7939 C.2     1  ZINC000182044395   -0.3500
      6 C6         -8.7811    0.5937   58.2286 C.2     1  ZINC000182044395    0.5900
      7 O7         -7.8562    0.1587   58.8880 O.2     1  ZINC000182044395   -0.5600
      8 N8         -9.9732    0.8281   58.8122 N.am    1  ZINC000182044395   -0.7200
      9 C9        -10.1549    0.5589   60.2407 C.3     1  ZINC000182044395    0.1100
     10 H10        -9.4801   -0.2397   60.5487 H       1  ZINC000182044395    0.0900
     11 C11        -9.8457    1.8253   61.0417 C.3     1  ZINC000182044395   -0.1600
     12 C12       -11.6014    0.1324   60.4993 C.3     1  ZINC000182044395    0.1100
     13 H13       -11.9881    0.6669   61.3670 H       1  ZINC000182044395    0.1100
     14 O14       -12.4004    0.4402   59.3553 O.3     1  ZINC000182044395   -0.5500
     15 C15       -11.6494   -1.3736   60.7647 C.3     1  ZINC000182044395   -0.1100
     16 C16       -12.0631   -2.0925   59.5066 C.ar    1  ZINC000182044395   -0.0800
     17 C17       -13.4039   -2.2788   59.2261 C.ar    1  ZINC000182044395   -0.1000
     18 C18       -13.7834   -2.9386   58.0722 C.ar    1  ZINC000182044395   -0.1200
     19 C19       -12.8223   -3.4114   57.1984 C.ar    1  ZINC000182044395   -0.1200
     20 C20       -11.4815   -3.2294   57.4812 C.ar    1  ZINC000182044395   -0.1200
     21 C21       -11.1020   -2.5660   58.6333 C.ar    1  ZINC000182044395   -0.1200
     22 C22        -7.5612    1.8015   56.3355 C.2     1  ZINC000182044395    0.4400
     23 O23        -6.8307    2.3754   57.1241 O.2     1  ZINC000182044395   -0.4900
     24 C24        -7.4394    2.0129   54.8809 C.ar    1  ZINC000182044395   -0.1800
     25 C25        -6.4811    2.8791   54.3557 C.ar    1  ZINC000182044395   -0.0200
     26 C26        -6.3997    3.0576   52.9911 C.ar    1  ZINC000182044395   -0.0700
     27 Cl27       -5.2097    4.1348   52.3296 Cl      1  ZINC000182044395   -0.0500
     28 C28        -7.2652    2.3790   52.1436 C.ar    1  ZINC000182044395   -0.0500
     29 C29        -8.2160    1.5200   52.6497 C.ar    1  ZINC000182044395   -0.1600
     30 C30        -8.3163    1.3251   54.0247 C.ar    1  ZINC000182044395    0.1900
     31 H31        -9.0773   -2.0881   53.7391 H       1  ZINC000182044395    0.0700
     32 H32       -10.0789   -1.9150   52.2778 H       1  ZINC000182044395    0.0800
     33 H33        -8.5496   -1.0155   52.4204 H       1  ZINC000182044395    0.0700
     34 H34       -11.0224   -0.6096   54.1632 H       1  ZINC000182044395    0.1000
     35 H35       -10.4945    0.4630   52.8444 H       1  ZINC000182044395    0.1100
     36 H36       -10.1655   -0.4373   56.1935 H       1  ZINC000182044395    0.1800
     37 H37       -10.7107    1.1751   58.2863 H       1  ZINC000182044395    0.4100
     38 H38        -8.8152    2.1291   60.8575 H       1  ZINC000182044395    0.0600
     39 H39       -10.5206    2.6239   60.7338 H       1  ZINC000182044395    0.0600
     40 H40        -9.9809    1.6250   62.1046 H       1  ZINC000182044395    0.0600
     41 H41       -13.3266    0.6273   59.5612 H       1  ZINC000182044395    0.3700
     42 H42       -12.3707   -1.5804   61.5553 H       1  ZINC000182044395    0.0800
     43 H43       -10.6629   -1.7197   61.0734 H       1  ZINC000182044395    0.0800
     44 H44       -14.1548   -1.9090   59.9086 H       1  ZINC000182044395    0.1200
     45 H45       -14.8309   -3.0845   57.8533 H       1  ZINC000182044395    0.1200
     46 H46       -13.1188   -3.9269   56.2968 H       1  ZINC000182044395    0.1200
     47 H47       -10.7304   -3.6027   56.8008 H       1  ZINC000182044395    0.1200
     48 H48       -10.0545   -2.4208   58.8525 H       1  ZINC000182044395    0.1200
     49 H49        -5.8069    3.4070   55.0139 H       1  ZINC000182044395    0.1500
     50 H50        -7.1921    2.5258   51.0761 H       1  ZINC000182044395    0.1500
     51 H51        -8.8832    0.9978   51.9801 H       1  ZINC000182044395    0.1500
@<TRIPOS>BOND
     1     1     2    1
     2     1    31    1
     3     1    32    1
     4     1    33    1
     5     2     3    1
     6     2    34    1
     7     2    35    1
     8     3    30    1
     9     3     4    1
    10     4     5    2
    11     4    36    1
    12     5     6    1
    13     5    22    1
    14     6     7    2
    15     6     8   am
    16     8     9    1
    17     8    37    1
    18     9    10    1
    19     9    11    1
    20     9    12    1
    21    11    38    1
    22    11    39    1
    23    11    40    1
    24    12    13    1
    25    12    14    1
    26    12    15    1
    27    14    41    1
    28    15    16    1
    29    15    42    1
    30    15    43    1
    31    16    21   ar
    32    16    17   ar
    33    17    18   ar
    34    17    44    1
    35    18    19   ar
    36    18    45    1
    37    19    20   ar
    38    19    46    1
    39    20    21   ar
    40    20    47    1
    41    21    48    1
    42    22    23    2
    43    22    24    1
    44    24    30   ar
    45    24    25   ar
    46    25    26   ar
    47    25    49    1
    48    26    27    1
    49    26    28   ar
    50    28    29   ar
    51    28    50    1
    52    29    30   ar
    53    29    51    1
@<TRIPOS>SUBSTRUCTURE
     1 ZINC000182044395        1 TEMP              0 ****  ****    0 ROOT


##########                                Name:    ZINC000193795672
##########                DOCK_Rotatable_Bonds:                  10
##########                         Heavy_Atoms:                  23
##########                    Molecular_Weight:              332.47
##########                DOCK_Rotatable_Bonds:                  10
##########                       Formal_Charge:        -2.98023e-07
##########                     HBond_Acceptors:                   6
##########                        HBond_Donors:                   3
##########                         Heavy_Atoms:                  23
##########                          Grid_Score:          -29.358341
##########                     Grid_vdw_energy:          -29.301607
##########                      Grid_es_energy:           -0.056734
##########           Internal_energy_repulsive:           16.649075

@<TRIPOS>MOLECULE
ZINC000193795672
 47 48 1 0 0
SMALL
USER_CHARGES


@<TRIPOS>ATOM
      1 C1         -8.5753    3.1005   51.9778 C.3     1  <0>        -0.1000
      2 C2         -8.9657    1.8710   52.7571 C.ar    1  <0>        -0.2000
      3 C3         -8.3068    1.5495   53.9361 C.ar    1  <0>        -0.0300
      4 C4         -8.6962    0.4125   54.6211 C.ar    1  <0>        -0.2400
      5 C5         -9.7289   -0.3656   54.1086 C.ar    1  <0>         0.4000
      6 N6        -10.1304   -1.5108   54.7867 N.pl3   1  <0>        -0.7300
      7 C7        -10.7485   -1.3995   56.1102 C.3     1  <0>         0.1300
      8 C8        -11.3408   -2.7519   56.5118 C.3     1  <0>        -0.1400
      9 C9        -11.6988   -2.7304   57.9991 C.3     1  <0>         0.1400
     10 N10       -10.4704   -2.6969   58.7967 N.am    1  <0>        -0.7500
     11 C11       -10.1543   -1.5925   59.5014 C.2     1  <0>         0.7100
     12 O12       -10.8896   -0.6244   59.4766 O.2     1  <0>        -0.5900
     13 N13        -9.0234   -1.5612   60.2338 N.am    1  <0>        -0.7400
     14 C14        -8.6790   -0.3600   60.9985 C.3     1  <0>         0.1700
     15 H15        -7.7984   -0.5584   61.6095 H       1  <0>         0.0900
     16 C16        -8.3823    0.7906   60.0346 C.3     1  <0>        -0.1700
     17 C17        -9.8520    0.0224   61.9034 C.3     1  <0>        -0.0600
     18 C18        -9.3250    0.5509   63.2126 C.2     1  <0>        -0.1700
     19 C19        -9.1458    1.8398   63.5052 C.2     1  <0>        -0.1400
     20 C20        -8.6497    2.0865   64.7737 C.2     1  <0>        -0.1300
     21 C21        -8.4261    0.9977   65.5113 C.2     1  <0>        -0.2100
     22 S22        -8.8595   -0.4372   64.5912 S.3     1  <0>         0.0900
     23 N23       -10.3333   -0.0251   52.9806 N.ar    1  <0>        -0.5400
     24 C24        -9.9861    1.0561   52.3088 C.ar    1  <0>         0.1500
     25 H25        -9.1600    3.9520   52.3258 H       1  <0>         0.0700
     26 H26        -7.5147    3.3031   52.1262 H       1  <0>         0.0600
     27 H27        -8.7690    2.9355   50.9179 H       1  <0>         0.0700
     28 H28        -7.5078    2.1728   54.3097 H       1  <0>         0.1300
     29 H29        -8.2048    0.1326   55.5413 H       1  <0>         0.1300
     30 H30       -10.0013   -2.3836   54.3835 H       1  <0>         0.4000
     31 H31        -9.9948   -1.1021   56.8394 H       1  <0>         0.0700
     32 H32       -11.5401   -0.6508   56.0798 H       1  <0>         0.0700
     33 H33       -12.2389   -2.9439   55.9246 H       1  <0>         0.0800
     34 H34       -10.6098   -3.5385   56.3253 H       1  <0>         0.0800
     35 H35       -12.2971   -1.8455   58.2161 H       1  <0>         0.0700
     36 H36       -12.2696   -3.6249   58.2485 H       1  <0>         0.0700
     37 H37        -9.8844   -3.4697   58.8174 H       1  <0>         0.4000
     38 H38        -8.4374   -2.3339   60.2545 H       1  <0>         0.3900
     39 H39        -9.2629    0.9889   59.4236 H       1  <0>         0.0600
     40 H40        -8.1260    1.6843   60.6035 H       1  <0>         0.0700
     41 H41        -7.5466    0.5182   59.3900 H       1  <0>         0.0700
     42 H42       -10.4512    0.7913   61.4159 H       1  <0>         0.1000
     43 H43       -10.4696   -0.8565   62.0885 H       1  <0>         0.0800
     44 H44        -9.3704    2.6311   62.8053 H       1  <0>         0.1400
     45 H45        -8.4579    3.0847   65.1385 H       1  <0>         0.1400
     46 H46        -8.0413    0.9976   66.5204 H       1  <0>         0.1600
     47 H47       -10.5015    1.3026   51.3923 H       1  <0>         0.1500
@<TRIPOS>BOND
     1     1     2    1
     2     1    25    1
     3     1    26    1
     4     1    27    1
     5     2    24   ar
     6     2     3   ar
     7     3     4   ar
     8     3    28    1
     9     4     5   ar
    10     4    29    1
    11     5     6    1
    12     5    23   ar
    13     6     7    1
    14     6    30    1
    15     7     8    1
    16     7    31    1
    17     7    32    1
    18     8     9    1
    19     8    33    1
    20     8    34    1
    21     9    10    1
    22     9    35    1
    23     9    36    1
    24    10    11   am
    25    10    37    1
    26    11    12    2
    27    11    13   am
    28    13    14    1
    29    13    38    1
    30    14    15    1
    31    14    16    1
    32    14    17    1
    33    16    39    1
    34    16    40    1
    35    16    41    1
    36    17    18    1
    37    17    42    1
    38    17    43    1
    39    18    22    1
    40    18    19    2
    41    19    20    1
    42    19    44    1
    43    20    21    2
    44    20    45    1
    45    21    22    1
    46    21    46    1
    47    23    24   ar
    48    24    47    1
@<TRIPOS>SUBSTRUCTURE
     1 <0>         1 TEMP              0 ****  ****    0 ROOT


##########                                Name:    ZINC000269287897
##########                DOCK_Rotatable_Bonds:                   8
##########                         Heavy_Atoms:                  23
##########                    Molecular_Weight:             385.301
##########                DOCK_Rotatable_Bonds:                   8
##########                       Formal_Charge:           0.0300002
##########                     HBond_Acceptors:                   5
##########                        HBond_Donors:                   1
##########                         Heavy_Atoms:                  23
##########                          Grid_Score:          -29.347689
##########                     Grid_vdw_energy:          -27.827438
##########                      Grid_es_energy:           -1.520251
##########           Internal_energy_repulsive:           12.003834

@<TRIPOS>MOLECULE
ZINC000269287897
 48 49 1 0 0
SMALL
USER_CHARGES


@<TRIPOS>ATOM
      1 C1        -11.4524   -0.7460   51.4851 C.3     1  ZINC000269287897    0.0300
      2 O2        -10.1607   -1.3567   51.5114 O.3     1  ZINC000269287897   -0.3800
      3 C3         -9.3839   -1.0244   52.6637 C.3     1  ZINC000269287897    0.0600
      4 C4         -8.9615    0.4442   52.5878 C.3     1  ZINC000269287897    0.0600
      5 O5         -8.1441    0.7637   53.7154 O.3     1  ZINC000269287897   -0.3800
      6 C6         -7.9212    2.1639   53.8938 C.3     1  ZINC000269287897    0.0700
      7 C7         -8.3850    2.5802   55.2911 C.3     1  ZINC000269287897   -0.1000
      8 H8         -8.0266    3.5796   55.5377 H       1  ZINC000269287897    0.1000
      9 C9         -9.9297    2.4977   55.4119 C.3     1  ZINC000269287897   -0.1200
     10 C10       -10.1463    2.2646   56.9220 C.3     1  ZINC000269287897    0.1000
     11 N11        -8.8998    1.7002   57.4597 N.am    1  ZINC000269287897   -0.6300
     12 C12        -8.6770    1.3739   58.7483 C.2     1  ZINC000269287897    0.7300
     13 O13        -7.6022    0.9131   59.0816 O.2     1  ZINC000269287897   -0.5600
     14 N14        -9.6454    1.5582   59.6672 N.am    1  ZINC000269287897   -0.6900
     15 C15        -9.4139    1.2192   61.0056 C.ar    1  ZINC000269287897    0.1800
     16 C16        -9.5567   -0.0964   61.4247 C.ar    1  ZINC000269287897   -0.0600
     17 C17        -9.9613   -1.1622   60.4390 C.3     1  ZINC000269287897   -0.1000
     18 C18        -9.3271   -0.4280   62.7461 C.ar    1  ZINC000269287897   -0.0900
     19 C19        -8.9554    0.5488   63.6512 C.ar    1  ZINC000269287897   -0.0800
     20 C20        -8.7059    0.1831   65.0917 C.3     1  ZINC000269287897   -0.1100
     21 C21        -8.8116    1.8607   63.2374 C.ar    1  ZINC000269287897   -0.0900
     22 C22        -9.0351    2.1981   61.9164 C.ar    1  ZINC000269287897   -0.1000
     23 Br23       -8.8378    3.9918   61.3510 Br      1  ZINC000269287897   -0.0500
     24 C24        -7.9334    1.5498   56.3559 C.3     1  ZINC000269287897    0.1400
     25 H25       -12.0218   -1.0624   52.3590 H       1  ZINC000269287897    0.0400
     26 H26       -11.3418    0.3384   51.4967 H       1  ZINC000269287897    0.0400
     27 H27       -11.9787   -1.0478   50.5796 H       1  ZINC000269287897    0.0900
     28 H28        -9.9797   -1.1850   53.5622 H       1  ZINC000269287897    0.0600
     29 H29        -8.4966   -1.6564   52.6984 H       1  ZINC000269287897    0.0600
     30 H30        -8.3974    0.6130   51.6706 H       1  ZINC000269287897    0.0700
     31 H31        -9.8484    1.0779   52.5907 H       1  ZINC000269287897    0.0600
     32 H32        -6.8583    2.3794   53.7846 H       1  ZINC000269287897    0.0600
     33 H33        -8.4837    2.7197   53.1436 H       1  ZINC000269287897    0.0500
     34 H34       -10.3917    3.4331   55.0959 H       1  ZINC000269287897    0.0900
     35 H35       -10.3177    1.6598   54.8327 H       1  ZINC000269287897    0.0800
     36 H36       -10.3678    3.2111   57.4152 H       1  ZINC000269287897    0.0700
     37 H37       -10.9668    1.5636   57.0749 H       1  ZINC000269287897    0.0700
     38 H38       -10.5028    1.9257   59.4013 H       1  ZINC000269287897    0.4100
     39 H39        -9.0739   -1.6905   60.0904 H       1  ZINC000269287897    0.0900
     40 H40       -10.6371   -1.8671   60.9232 H       1  ZINC000269287897    0.0600
     41 H41       -10.4655   -0.6997   59.5905 H       1  ZINC000269287897    0.0600
     42 H42        -9.4384   -1.4514   63.0725 H       1  ZINC000269287897    0.1300
     43 H43        -7.6566   -0.0811   65.2229 H       1  ZINC000269287897    0.0700
     44 H44        -8.9490    1.0329   65.7296 H       1  ZINC000269287897    0.0700
     45 H45        -9.3315   -0.6667   65.3644 H       1  ZINC000269287897    0.0700
     46 H46        -8.5212    2.6214   63.9469 H       1  ZINC000269287897    0.1400
     47 H47        -7.9774    0.5399   55.9482 H       1  ZINC000269287897    0.0700
     48 H48        -6.9248    1.7768   56.7012 H       1  ZINC000269287897    0.0900
@<TRIPOS>BOND
     1     1     2    1
     2     1    25    1
     3     1    26    1
     4     1    27    1
     5     2     3    1
     6     3     4    1
     7     3    28    1
     8     3    29    1
     9     4     5    1
    10     4    30    1
    11     4    31    1
    12     5     6    1
    13     6     7    1
    14     6    32    1
    15     6    33    1
    16     7     8    1
    17     7    24    1
    18     7     9    1
    19     9    10    1
    20     9    34    1
    21     9    35    1
    22    10    11    1
    23    10    36    1
    24    10    37    1
    25    11    12   am
    26    11    24    1
    27    12    13    2
    28    12    14   am
    29    14    15    1
    30    14    38    1
    31    15    22   ar
    32    15    16   ar
    33    16    17    1
    34    16    18   ar
    35    17    39    1
    36    17    40    1
    37    17    41    1
    38    18    19   ar
    39    18    42    1
    40    19    20    1
    41    19    21   ar
    42    20    43    1
    43    20    44    1
    44    20    45    1
    45    21    22   ar
    46    21    46    1
    47    22    23    1
    48    24    47    1
    49    24    48    1
@<TRIPOS>SUBSTRUCTURE
     1 ZINC000269287897        1 TEMP              0 ****  ****    0 ROOT


##########                                Name:    ZINC000266467123
##########                DOCK_Rotatable_Bonds:                   9
##########                         Heavy_Atoms:                  25
##########                    Molecular_Weight:             337.421
##########                DOCK_Rotatable_Bonds:                   9
##########                       Formal_Charge:                0.02
##########                     HBond_Acceptors:                   5
##########                        HBond_Donors:                   3
##########                         Heavy_Atoms:                  25
##########                          Grid_Score:          -29.341413
##########                     Grid_vdw_energy:          -29.196819
##########                      Grid_es_energy:           -0.144594
##########           Internal_energy_repulsive:            8.651261

@<TRIPOS>MOLECULE
ZINC000266467123
 48 50 1 0 0
SMALL
USER_CHARGES


@<TRIPOS>ATOM
      1 C1         -9.8492   -1.0219   51.9740 C.3     1  <0>        -0.1600
      2 C2         -9.2008   -0.5027   53.2590 C.3     1  <0>         0.1500
      3 H3         -8.3692   -1.1513   53.5339 H       1  <0>         0.1200
      4 N4        -10.1921   -0.4958   54.3377 N.am    1  <0>        -0.7300
      5 C5        -10.4217   -1.6172   55.0492 C.2     1  <0>         0.7100
      6 O6         -9.8052   -2.6342   54.7967 O.2     1  <0>        -0.5900
      7 N7        -11.3347   -1.6112   56.0405 N.am    1  <0>        -0.7100
      8 C8        -11.5830   -2.8296   56.8150 C.3     1  <0>         0.1100
      9 H9        -10.9809   -3.6946   56.5367 H       1  <0>         0.1400
     10 C10       -13.0159   -3.0882   57.2852 C.3     1  <0>        -0.1900
     11 C11       -11.9436   -2.6662   58.2929 C.3     1  <0>        -0.1500
     12 H12       -11.5791   -3.4237   58.9868 H       1  <0>         0.1200
     13 C13       -12.0182   -1.2429   58.8492 C.3     1  <0>        -0.0500
     14 C14       -10.8318   -0.9903   59.7437 C.ar    1  <0>        -0.0800
     15 C15        -9.6774   -0.4379   59.2211 C.ar    1  <0>        -0.1100
     16 C16        -8.5893   -0.2062   60.0416 C.ar    1  <0>        -0.1200
     17 C17        -8.6556   -0.5266   61.3846 C.ar    1  <0>        -0.1200
     18 C18        -9.8104   -1.0782   61.9074 C.ar    1  <0>        -0.1200
     19 C19       -10.9001   -1.3059   61.0878 C.ar    1  <0>        -0.1200
     20 C20        -8.6927    0.8982   53.0347 C.2     1  <0>         0.5100
     21 O21        -9.4684    1.8303   53.0248 O.2     1  <0>        -0.5100
     22 N22        -7.3761    1.1150   52.8451 N.am    1  <0>        -0.6700
     23 C23        -6.9042    2.4158   52.6368 C.ar    1  <0>         0.1400
     24 C24        -6.3525    3.1329   53.6905 C.ar    1  <0>        -0.1400
     25 C25        -5.8877    4.4166   53.4816 C.ar    1  <0>        -0.1000
     26 C26        -5.9715    4.9880   52.2252 C.ar    1  <0>        -0.1300
     27 C27        -6.5207    4.2768   51.1741 C.ar    1  <0>        -0.1000
     28 C28        -6.9812    2.9902   51.3748 C.ar    1  <0>        -0.1200
     29 H29        -9.1118   -1.0271   51.1714 H       1  <0>         0.0700
     30 H30       -10.2169   -2.0351   52.1362 H       1  <0>         0.0800
     31 H31       -10.6810   -0.3733   51.6991 H       1  <0>         0.0700
     32 H32       -10.6830    0.3160   54.5400 H       1  <0>         0.4100
     33 H33       -11.8274   -0.8001   56.2412 H       1  <0>         0.4000
     34 H34       -13.7738   -2.3517   57.0183 H       1  <0>         0.1000
     35 H35       -13.3563   -4.1232   57.3165 H       1  <0>         0.1000
     36 H36       -12.0100   -0.5298   58.0249 H       1  <0>         0.0800
     37 H37       -12.9374   -1.1246   59.4228 H       1  <0>         0.0700
     38 H38        -9.6256   -0.1877   58.1718 H       1  <0>         0.1200
     39 H39        -7.6871    0.2247   59.6331 H       1  <0>         0.1200
     40 H40        -7.8053   -0.3463   62.0255 H       1  <0>         0.1200
     41 H41        -9.8622   -1.3287   62.9566 H       1  <0>         0.1200
     42 H42       -11.8022   -1.7368   61.4962 H       1  <0>         0.1200
     43 H43        -6.7556    0.3695   52.8531 H       1  <0>         0.4100
     44 H44        -6.2874    2.6873   54.6720 H       1  <0>         0.1300
     45 H45        -5.4586    4.9748   54.3006 H       1  <0>         0.1300
     46 H46        -5.6076    5.9921   52.0645 H       1  <0>         0.1200
     47 H47        -6.5854    4.7261   50.1942 H       1  <0>         0.1300
     48 H48        -7.4101    2.4352   50.5536 H       1  <0>         0.1400
@<TRIPOS>BOND
     1     1     2    1
     2     1    29    1
     3     1    30    1
     4     1    31    1
     5     2     3    1
     6     2     4    1
     7     2    20    1
     8     4     5   am
     9     4    32    1
    10     5     6    2
    11     5     7   am
    12     7     8    1
    13     7    33    1
    14     8     9    1
    15     8    11    1
    16     8    10    1
    17    10    11    1
    18    10    34    1
    19    10    35    1
    20    11    12    1
    21    11    13    1
    22    13    14    1
    23    13    36    1
    24    13    37    1
    25    14    19   ar
    26    14    15   ar
    27    15    16   ar
    28    15    38    1
    29    16    17   ar
    30    16    39    1
    31    17    18   ar
    32    17    40    1
    33    18    19   ar
    34    18    41    1
    35    19    42    1
    36    20    21    2
    37    20    22   am
    38    22    23    1
    39    22    43    1
    40    23    28   ar
    41    23    24   ar
    42    24    25   ar
    43    24    44    1
    44    25    26   ar
    45    25    45    1
    46    26    27   ar
    47    26    46    1
    48    27    28   ar
    49    27    47    1
    50    28    48    1
@<TRIPOS>SUBSTRUCTURE
     1 <0>         1 TEMP              0 ****  ****    0 ROOT


##########                                Name:    ZINC000464752079
##########                DOCK_Rotatable_Bonds:                   7
##########                         Heavy_Atoms:                  29
##########                    Molecular_Weight:             404.413
##########                DOCK_Rotatable_Bonds:                   7
##########                       Formal_Charge:         7.45058e-08
##########                     HBond_Acceptors:                   8
##########                        HBond_Donors:                   1
##########                         Heavy_Atoms:                  29
##########                          Grid_Score:          -29.331924
##########                     Grid_vdw_energy:          -26.375990
##########                      Grid_es_energy:           -2.955935
##########           Internal_energy_repulsive:           20.026579

@<TRIPOS>MOLECULE
ZINC000464752079
 51 54 1 0 0
SMALL
USER_CHARGES


@<TRIPOS>ATOM
      1 C1         -2.5688    8.1043   53.6355 C.3     1  ZINC000464752079   -0.1200
      2 C2         -2.9862    6.8163   52.9738 C.ar    1  ZINC000464752079   -0.0800
      3 C3         -3.9150    6.8344   51.9506 C.ar    1  ZINC000464752079   -0.1200
      4 C4         -4.2979    5.6527   51.3435 C.ar    1  ZINC000464752079   -0.1200
      5 C5         -3.7515    4.4533   51.7597 C.ar    1  ZINC000464752079   -0.1300
      6 C6         -2.8217    4.4353   52.7826 C.ar    1  ZINC000464752079   -0.0900
      7 C7         -2.4357    5.6171   53.3866 C.ar    1  ZINC000464752079   -0.0800
      8 C8         -1.4221    5.5974   54.5017 C.3     1  ZINC000464752079    0.2000
      9 H9         -0.8628    6.5329   54.5105 H       1  ZINC000464752079    0.0900
     10 C10        -2.1353    5.3995   55.8558 C.3     1  ZINC000464752079   -0.1200
     11 C11        -1.1668    4.4627   56.6251 C.3     1  ZINC000464752079   -0.1300
     12 C12        -0.6313    3.5635   55.4830 C.3     1  ZINC000464752079    0.1000
     13 N13        -0.5011    4.4659   54.3203 N.am    1  ZINC000464752079   -0.6300
     14 C14         0.3219    4.2792   53.2695 C.2     1  ZINC000464752079    0.7200
     15 O15         0.3469    5.0915   52.3651 O.2     1  ZINC000464752079   -0.5700
     16 N16         1.1172    3.1922   53.2210 N.am    1  ZINC000464752079   -0.7400
     17 C17         2.0131    2.9903   52.0797 C.3     1  ZINC000464752079    0.1900
     18 C18         1.6605    1.6994   51.3866 C.ar    1  ZINC000464752079   -0.1200
     19 C19         0.8489    1.7159   50.2679 C.ar    1  ZINC000464752079   -0.0500
     20 C20         0.5226    0.5309   49.6288 C.ar    1  ZINC000464752079    0.0100
     21 C21         1.0136   -0.6783   50.1146 C.ar    1  ZINC000464752079    0.0800
     22 C22         1.8278   -0.6923   51.2352 C.ar    1  ZINC000464752079   -0.1800
     23 C23         2.1554    0.4967   51.8688 C.ar    1  ZINC000464752079    0.1400
     24 O24         2.9548    0.4829   52.9687 O.3     1  ZINC000464752079   -0.3100
     25 C25         3.9600   -0.5310   53.0273 C.3     1  ZINC000464752079    0.4100
     26 F26         4.4950   -0.7317   51.7503 F       1  ZINC000464752079   -0.2000
     27 F27         4.9764   -0.1301   53.9010 F       1  ZINC000464752079   -0.2000
     28 O28         0.5535   -1.6874   49.3187 O.3     1  ZINC000464752079   -0.3000
     29 C29        -0.5525   -1.1266   48.5870 C.3     1  ZINC000464752079    0.2100
     30 O30        -0.2457    0.2790   48.5278 O.3     1  ZINC000464752079   -0.3000
     31 H31        -1.7135    8.5242   53.1062 H       1  ZINC000464752079    0.0700
     32 H32        -3.3970    8.8124   53.6070 H       1  ZINC000464752079    0.0700
     33 H33        -2.2941    7.9080   54.6719 H       1  ZINC000464752079    0.0700
     34 H34        -4.3420    7.7716   51.6254 H       1  ZINC000464752079    0.1200
     35 H35        -5.0243    5.6668   50.5444 H       1  ZINC000464752079    0.1200
     36 H36        -4.0511    3.5301   51.2859 H       1  ZINC000464752079    0.1200
     37 H37        -2.3949    3.4981   53.1081 H       1  ZINC000464752079    0.1100
     38 H38        -2.2461    6.3510   56.3761 H       1  ZINC000464752079    0.0900
     39 H39        -3.1043    4.9208   55.7150 H       1  ZINC000464752079    0.0800
     40 H40        -0.3590    5.0302   57.0871 H       1  ZINC000464752079    0.0800
     41 H41        -1.7025    3.8724   57.3686 H       1  ZINC000464752079    0.0900
     42 H42         0.3407    3.1492   55.7506 H       1  ZINC000464752079    0.0700
     43 H43        -1.3391    2.7635   55.2664 H       1  ZINC000464752079    0.0700
     44 H44         1.0964    2.5436   53.9421 H       1  ZINC000464752079    0.4000
     45 H45         1.9035    3.8195   51.3807 H       1  ZINC000464752079    0.0800
     46 H46         3.0440    2.9445   52.4305 H       1  ZINC000464752079    0.0800
     47 H47         0.4683    2.6539   49.8916 H       1  ZINC000464752079    0.1500
     48 H48         2.2098   -1.6290   51.6136 H       1  ZINC000464752079    0.1500
     49 H49         3.5180   -1.4605   53.3863 H       1  ZINC000464752079    0.1900
     50 H50        -0.6024   -1.5503   47.5840 H       1  ZINC000464752079    0.1400
     51 H51        -1.4883   -1.2922   49.1208 H       1  ZINC000464752079    0.0900
@<TRIPOS>BOND
     1     1     2    1
     2     1    31    1
     3     1    32    1
     4     1    33    1
     5     2     7   ar
     6     2     3   ar
     7     3     4   ar
     8     3    34    1
     9     4     5   ar
    10     4    35    1
    11     5     6   ar
    12     5    36    1
    13     6     7   ar
    14     6    37    1
    15     7     8    1
    16     8     9    1
    17     8    13    1
    18     8    10    1
    19    10    11    1
    20    10    38    1
    21    10    39    1
    22    11    12    1
    23    11    40    1
    24    11    41    1
    25    12    13    1
    26    12    42    1
    27    12    43    1
    28    13    14   am
    29    14    15    2
    30    14    16   am
    31    16    17    1
    32    16    44    1
    33    17    18    1
    34    17    45    1
    35    17    46    1
    36    18    23   ar
    37    18    19   ar
    38    19    20   ar
    39    19    47    1
    40    20    30    1
    41    20    21   ar
    42    21    22   ar
    43    21    28    1
    44    22    23   ar
    45    22    48    1
    46    23    24    1
    47    24    25    1
    48    25    26    1
    49    25    27    1
    50    25    49    1
    51    28    29    1
    52    29    30    1
    53    29    50    1
    54    29    51    1
@<TRIPOS>SUBSTRUCTURE
     1 ZINC000464752079        1 TEMP              0 ****  ****    0 ROOT


##########                                Name:    ZINC000451500596
##########                DOCK_Rotatable_Bonds:                   7
##########                         Heavy_Atoms:                  25
##########                    Molecular_Weight:             365.497
##########                DOCK_Rotatable_Bonds:                   7
##########                       Formal_Charge:           0.0400004
##########                     HBond_Acceptors:                   7
##########                        HBond_Donors:                   2
##########                         Heavy_Atoms:                  25
##########                          Grid_Score:          -29.324505
##########                     Grid_vdw_energy:          -28.676561
##########                      Grid_es_energy:           -0.647944
##########           Internal_energy_repulsive:           10.345685

@<TRIPOS>MOLECULE
ZINC000451500596
 52 54 1 0 0
SMALL
USER_CHARGES


@<TRIPOS>ATOM
      1 C1        -14.1779   -2.9634   60.0881 C.3     1  ZINC000451500596   -0.6700
      2 S2        -13.9913   -2.9729   58.2838 S.o2    1  ZINC000451500596    2.6100
      3 O3        -12.8497   -3.7295   57.9046 O.2     1  ZINC000451500596   -0.9500
      4 O4        -15.2484   -3.1776   57.6536 O.2     1  ZINC000451500596   -0.9600
      5 N5        -13.5921   -1.4119   57.9014 N.am    1  ZINC000451500596   -1.1200
      6 C6        -13.3595   -1.0366   56.5046 C.3     1  ZINC000451500596    0.1200
      7 C7        -12.2216   -0.0163   56.4333 C.3     1  ZINC000451500596   -0.1000
      8 H8        -12.4193    0.8114   57.1144 H       1  ZINC000451500596    0.0900
      9 C9        -12.0736    0.5104   54.9909 C.3     1  ZINC000451500596   -0.1200
     10 C10       -10.5451    0.6748   54.8015 C.3     1  ZINC000451500596   -0.1300
     11 C11        -9.9732   -0.5494   55.5589 C.3     1  ZINC000451500596   -0.1300
     12 C12       -10.8864   -0.6898   56.7957 C.3     1  ZINC000451500596    0.1400
     13 H13       -11.0491   -1.7435   57.0220 H       1  ZINC000451500596    0.1000
     14 N14       -10.2788   -0.0176   57.9469 N.am    1  ZINC000451500596   -0.7200
     15 C15       -10.0371   -0.7071   59.0795 C.2     1  ZINC000451500596    0.5300
     16 O16       -10.3240   -1.8836   59.1461 O.2     1  ZINC000451500596   -0.5300
     17 C17        -9.4105   -0.0162   60.2631 C.3     1  ZINC000451500596   -0.1300
     18 H18        -8.3533   -0.2701   60.3406 H       1  ZINC000451500596    0.1000
     19 C19        -9.5996    1.5205   60.1646 C.3     1  ZINC000451500596   -0.1200
     20 C20        -9.5416    1.9390   61.6549 C.3     1  ZINC000451500596    0.0500
     21 N21       -10.2301    0.8500   62.3800 N.3     1  ZINC000451500596   -0.4900
     22 C22        -9.6592    0.6474   63.6386 C.ar    1  ZINC000451500596    0.0800
     23 C23        -8.3260    0.2725   63.7461 C.ar    1  ZINC000451500596   -0.0900
     24 C24        -7.7646    0.0734   64.9921 C.ar    1  ZINC000451500596   -0.1100
     25 C25        -8.5282    0.2464   66.1319 C.ar    1  ZINC000451500596   -0.1200
     26 C26        -9.8558    0.6196   66.0285 C.ar    1  ZINC000451500596   -0.1100
     27 C27       -10.4220    0.8259   64.7859 C.ar    1  ZINC000451500596   -0.1500
     28 C28       -10.1557   -0.3796   61.5646 C.3     1  ZINC000451500596    0.0600
     29 H29       -13.2382   -2.6591   60.5490 H       1  ZINC000451500596    0.1300
     30 H30       -14.9639   -2.2620   60.3684 H       1  ZINC000451500596    0.1300
     31 H31       -14.4439   -3.9632   60.4312 H       1  ZINC000451500596    0.1300
     32 H32       -13.5122   -0.7461   58.6023 H       1  ZINC000451500596    0.4200
     33 H33       -13.0894   -1.9227   55.9302 H       1  ZINC000451500596    0.0700
     34 H34       -14.2673   -0.5978   56.0903 H       1  ZINC000451500596    0.0900
     35 H35       -12.4707   -0.2125   54.2782 H       1  ZINC000451500596    0.0800
     36 H36       -12.5769    1.4710   54.8819 H       1  ZINC000451500596    0.0700
     37 H37       -10.2801    0.6336   53.7450 H       1  ZINC000451500596    0.0700
     38 H38       -10.1978    1.6046   55.2520 H       1  ZINC000451500596    0.0700
     39 H39       -10.0312   -1.4433   54.9380 H       1  ZINC000451500596    0.0800
     40 H40        -8.9439   -0.3620   55.8645 H       1  ZINC000451500596    0.0700
     41 H41       -10.0504    0.9236   57.8941 H       1  ZINC000451500596    0.4000
     42 H42        -8.7883    1.9784   59.5986 H       1  ZINC000451500596    0.0800
     43 H43       -10.5669    1.7676   59.7271 H       1  ZINC000451500596    0.0800
     44 H44        -8.5064    2.0204   61.9863 H       1  ZINC000451500596    0.0600
     45 H45       -10.0640    2.8840   61.8043 H       1  ZINC000451500596    0.0900
     46 H46        -7.7292    0.1366   62.8562 H       1  ZINC000451500596    0.1300
     47 H47        -6.7281   -0.2180   65.0763 H       1  ZINC000451500596    0.1300
     48 H48        -8.0870    0.0894   67.1050 H       1  ZINC000451500596    0.1200
     49 H49       -10.4494    0.7538   66.9207 H       1  ZINC000451500596    0.1200
     50 H50       -11.4587    1.1175   64.7057 H       1  ZINC000451500596    0.1200
     51 H51       -11.1607   -0.7293   61.3284 H       1  ZINC000451500596    0.1000
     52 H52        -9.6100   -1.1517   62.1069 H       1  ZINC000451500596    0.0700
@<TRIPOS>BOND
     1     1     2    1
     2     1    29    1
     3     1    30    1
     4     1    31    1
     5     2     3    2
     6     2     4    2
     7     2     5   am
     8     5     6    1
     9     5    32    1
    10     6     7    1
    11     6    33    1
    12     6    34    1
    13     7     8    1
    14     7    12    1
    15     7     9    1
    16     9    10    1
    17     9    35    1
    18     9    36    1
    19    10    11    1
    20    10    37    1
    21    10    38    1
    22    11    12    1
    23    11    39    1
    24    11    40    1
    25    12    13    1
    26    12    14    1
    27    14    15   am
    28    14    41    1
    29    15    16    2
    30    15    17    1
    31    17    18    1
    32    17    28    1
    33    17    19    1
    34    19    20    1
    35    19    42    1
    36    19    43    1
    37    20    21    1
    38    20    44    1
    39    20    45    1
    40    21    22    1
    41    21    28    1
    42    22    27   ar
    43    22    23   ar
    44    23    24   ar
    45    23    46    1
    46    24    25   ar
    47    24    47    1
    48    25    26   ar
    49    25    48    1
    50    26    27   ar
    51    26    49    1
    52    27    50    1
    53    28    51    1
    54    28    52    1
@<TRIPOS>SUBSTRUCTURE
     1 ZINC000451500596        1 TEMP              0 ****  ****    0 ROOT


##########                                Name:    ZINC000502834785
##########                DOCK_Rotatable_Bonds:                   9
##########                         Heavy_Atoms:                  26
##########                    Molecular_Weight:             356.468
##########                DOCK_Rotatable_Bonds:                   9
##########                       Formal_Charge:           0.0199998
##########                     HBond_Acceptors:                   6
##########                        HBond_Donors:                   2
##########                         Heavy_Atoms:                  26
##########                          Grid_Score:          -29.313711
##########                     Grid_vdw_energy:          -29.308081
##########                      Grid_es_energy:           -0.005630
##########           Internal_energy_repulsive:           18.296982

@<TRIPOS>MOLECULE
ZINC000502834785
 54 56 1 0 0
SMALL
USER_CHARGES


@<TRIPOS>ATOM
      1 C1         -8.1492    0.0939   53.1425 C.3     1  ZINC000502834785   -0.1800
      2 C2         -9.6475    0.0684   53.4513 C.3     1  ZINC000502834785    0.0800
      3 C3        -10.3533   -0.8753   52.4754 C.3     1  ZINC000502834785   -0.1500
      4 O4         -9.8503   -0.3911   54.7892 O.3     1  ZINC000502834785   -0.3800
      5 C5        -10.2496    0.6337   55.7015 C.3     1  ZINC000502834785    0.1000
      6 C6         -9.8699    0.2337   57.1038 C.ar    1  ZINC000502834785   -0.0800
      7 C7         -8.8251    0.8719   57.7457 C.ar    1  ZINC000502834785   -0.1000
      8 C8         -8.4768    0.5050   59.0321 C.ar    1  ZINC000502834785   -0.1000
      9 C9         -9.1736   -0.4998   59.6769 C.ar    1  ZINC000502834785   -0.1000
     10 C10        -8.7935   -0.9002   61.0792 C.3     1  ZINC000502834785    0.1600
     11 N11        -9.2324    0.1350   62.0185 N.am    1  ZINC000502834785   -0.7300
     12 C12        -8.7004    0.1917   63.2555 C.2     1  ZINC000502834785    0.5100
     13 O13        -7.8575   -0.6132   63.5906 O.2     1  ZINC000502834785   -0.5200
     14 C14        -9.1532    1.2555   64.2222 C.3     1  ZINC000502834785    0.0300
     15 N15       -10.5001    0.9316   64.7110 N.3     1  ZINC000502834785   -0.5000
     16 C16       -11.5195    1.2049   63.6756 C.3     1  ZINC000502834785    0.0500
     17 C17       -12.7694    1.6696   64.4638 C.3     1  ZINC000502834785   -0.1300
     18 C18       -12.1280    2.4954   65.6098 C.3     1  ZINC000502834785   -0.1300
     19 C19       -10.8295    1.7188   65.9133 C.3     1  ZINC000502834785    0.1500
     20 H20       -10.9855    1.0524   66.7617 H       1  ZINC000502834785    0.1100
     21 C21        -9.7140    2.6848   66.2191 C.2     1  ZINC000502834785    0.0600
     22 N22        -9.5930    3.8948   65.7362 N.2     1  ZINC000502834785   -0.2900
     23 N23        -8.4258    4.4620   66.2638 N.pl3   1  ZINC000502834785   -0.4800
     24 C24        -7.8529    3.5512   67.0781 C.2     1  ZINC000502834785    0.0600
     25 C25        -8.6322    2.4450   67.0727 C.2     1  ZINC000502834785   -0.2600
     26 C26       -10.2192   -1.1371   59.0356 C.ar    1  ZINC000502834785   -0.1000
     27 C27       -10.5700   -0.7675   57.7505 C.ar    1  ZINC000502834785   -0.1000
     28 H28        -7.6464    0.7662   53.8378 H       1  ZINC000502834785    0.0600
     29 H29        -7.7393   -0.9106   53.2477 H       1  ZINC000502834785    0.0600
     30 H30        -7.9944    0.4444   52.1220 H       1  ZINC000502834785    0.0700
     31 H31       -10.0574    1.0729   53.3460 H       1  ZINC000502834785    0.0600
     32 H32        -9.9434   -1.8797   52.5807 H       1  ZINC000502834785    0.0600
     33 H33       -11.4207   -0.8934   52.6954 H       1  ZINC000502834785    0.0600
     34 H34       -10.1986   -0.5247   51.4550 H       1  ZINC000502834785    0.0700
     35 H35        -9.7493    1.5666   55.4416 H       1  ZINC000502834785    0.0600
     36 H36       -11.3293    0.7720   55.6427 H       1  ZINC000502834785    0.0600
     37 H37        -8.2807    1.6570   57.2420 H       1  ZINC000502834785    0.1300
     38 H38        -7.6601    1.0031   59.5333 H       1  ZINC000502834785    0.1300
     39 H39        -9.2743   -1.8457   61.3300 H       1  ZINC000502834785    0.0800
     40 H40        -7.7115   -1.0143   61.1438 H       1  ZINC000502834785    0.0800
     41 H41        -9.9057    0.7796   61.7500 H       1  ZINC000502834785    0.4000
     42 H42        -8.4621    1.2994   65.0640 H       1  ZINC000502834785    0.1000
     43 H43        -9.1724    2.2211   63.7171 H       1  ZINC000502834785    0.0800
     44 H44       -11.1780    1.9943   63.0060 H       1  ZINC000502834785    0.0400
     45 H45       -11.7413    0.2982   63.1127 H       1  ZINC000502834785    0.1000
     46 H46       -13.4117    2.2951   63.8439 H       1  ZINC000502834785    0.0800
     47 H47       -13.3213    0.8167   64.8589 H       1  ZINC000502834785    0.0800
     48 H48       -11.9023    3.5081   65.2755 H       1  ZINC000502834785    0.0800
     49 H49       -12.7796    2.5131   66.4835 H       1  ZINC000502834785    0.0800
     50 H50        -8.0891    5.3523   66.0770 H       1  ZINC000502834785    0.4400
     51 H51        -6.9384    3.6831   67.6374 H       1  ZINC000502834785    0.1800
     52 H52        -8.4481    1.5353   67.6251 H       1  ZINC000502834785    0.1500
     53 H53       -10.7639   -1.9219   59.5395 H       1  ZINC000502834785    0.1300
     54 H54       -11.3870   -1.2654   57.2495 H       1  ZINC000502834785    0.1200
@<TRIPOS>BOND
     1     1     2    1
     2     1    28    1
     3     1    29    1
     4     1    30    1
     5     2     3    1
     6     2     4    1
     7     2    31    1
     8     3    32    1
     9     3    33    1
    10     3    34    1
    11     4     5    1
    12     5     6    1
    13     5    35    1
    14     5    36    1
    15     6    27   ar
    16     6     7   ar
    17     7     8   ar
    18     7    37    1
    19     8     9   ar
    20     8    38    1
    21     9    10    1
    22     9    26   ar
    23    10    11    1
    24    10    39    1
    25    10    40    1
    26    11    12   am
    27    11    41    1
    28    12    13    2
    29    12    14    1
    30    14    15    1
    31    14    42    1
    32    14    43    1
    33    15    19    1
    34    15    16    1
    35    16    17    1
    36    16    44    1
    37    16    45    1
    38    17    18    1
    39    17    46    1
    40    17    47    1
    41    18    19    1
    42    18    48    1
    43    18    49    1
    44    19    20    1
    45    19    21    1
    46    21    25    1
    47    21    22    2
    48    22    23    1
    49    23    24    1
    50    23    50    1
    51    24    25    2
    52    24    51    1
    53    25    52    1
    54    26    27   ar
    55    26    53    1
    56    27    54    1
@<TRIPOS>SUBSTRUCTURE
     1 ZINC000502834785        1 TEMP              0 ****  ****    0 ROOT


##########                                Name:    ZINC000054627026
##########                DOCK_Rotatable_Bonds:                   5
##########                         Heavy_Atoms:                  28
##########                    Molecular_Weight:              370.37
##########                DOCK_Rotatable_Bonds:                   5
##########                       Formal_Charge:         6.85453e-07
##########                     HBond_Acceptors:                   8
##########                        HBond_Donors:                   2
##########                         Heavy_Atoms:                  28
##########                          Grid_Score:          -29.307310
##########                     Grid_vdw_energy:          -27.373810
##########                      Grid_es_energy:           -1.933500
##########           Internal_energy_repulsive:            4.935700

@<TRIPOS>MOLECULE
ZINC000054627026
 42 46 1 0 0
SMALL
USER_CHARGES


@<TRIPOS>ATOM
      1 O1         -8.1164    2.5697   52.2286 O.2     1  ZINC000054627026   -0.5200
      2 C2         -7.0268    2.4252   52.7490 C.2     1  ZINC000054627026    0.6100
      3 N3         -6.8425    1.4582   53.6694 N.am    1  ZINC000054627026   -0.6500
      4 C4         -7.9072    0.6233   54.0309 C.ar    1  ZINC000054627026    0.1400
      5 C5         -8.4248   -0.2795   53.1045 C.ar    1  ZINC000054627026   -0.0900
      6 C6         -9.4726   -1.1072   53.4475 C.ar    1  ZINC000054627026   -0.0900
      7 C7        -10.0172   -1.0436   54.7218 C.ar    1  ZINC000054627026    0.0500
      8 N8        -11.0441   -1.7188   55.3584 N.pl3   1  ZINC000054627026   -0.5900
      9 C9        -11.1265   -1.2211   56.6331 C.2     1  ZINC000054627026    0.3700
     10 C10       -12.0883   -1.6628   57.6538 C.2     1  ZINC000054627026    0.0200
     11 C11       -13.3757   -2.0489   57.4267 C.2     1  ZINC000054627026   -0.1200
     12 C12       -13.9233   -2.3875   58.6773 C.2     1  ZINC000054627026   -0.2200
     13 C13       -12.9564   -2.1947   59.5985 C.2     1  ZINC000054627026   -0.0100
     14 O14       -11.8491   -1.7622   58.9767 O.3     1  ZINC000054627026   -0.1700
     15 N15       -10.2156   -0.2900   56.8048 N.2     1  ZINC000054627026   -0.4600
     16 C16        -9.5013   -0.1353   55.6638 C.ar    1  ZINC000054627026    0.0700
     17 C17        -8.4349    0.6958   55.3065 C.ar    1  ZINC000054627026   -0.0900
     18 C18        -5.9054    3.3044   52.3683 C.2     1  ZINC000054627026   -0.1000
     19 C19        -4.6290    3.2242   52.8490 C.2     1  ZINC000054627026    0.1000
     20 N20        -3.9228    4.2058   52.2468 N.pl3   1  ZINC000054627026   -0.3100
     21 C21        -2.5647    4.4974   52.4386 C.ar    1  ZINC000054627026    0.1300
     22 C22        -1.7792    3.6661   53.2256 C.ar    1  ZINC000054627026   -0.1200
     23 C23        -0.4418    3.9556   53.4124 C.ar    1  ZINC000054627026   -0.1000
     24 C24         0.1151    5.0725   52.8168 C.ar    1  ZINC000054627026   -0.1100
     25 C25        -0.6649    5.9026   52.0328 C.ar    1  ZINC000054627026   -0.1000
     26 C26        -2.0015    5.6148   51.8374 C.ar    1  ZINC000054627026   -0.1000
     27 N27        -4.8095    4.8765   51.3924 N.2     1  ZINC000054627026   -0.0500
     28 N28        -5.9651    4.3164   51.4854 N.2     1  ZINC000054627026   -0.2000
     29 H29        -5.9723    1.3403   54.0815 H       1  ZINC000054627026    0.4200
     30 H30        -8.0030   -0.3308   52.1117 H       1  ZINC000054627026    0.1500
     31 H31        -9.8694   -1.8046   52.7245 H       1  ZINC000054627026    0.1300
     32 H32       -11.6015   -2.4136   54.9743 H       1  ZINC000054627026    0.4300
     33 H33       -13.8783   -2.0870   56.4715 H       1  ZINC000054627026    0.1600
     34 H34       -14.9282   -2.7358   58.8649 H       1  ZINC000054627026    0.1600
     35 H35       -13.0565   -2.3638   60.6605 H       1  ZINC000054627026    0.2100
     36 H36        -8.0272    1.3934   56.0232 H       1  ZINC000054627026    0.1400
     37 H37        -4.2564    2.5133   53.5715 H       1  ZINC000054627026    0.2100
     38 H38        -2.2137    2.7940   53.6916 H       1  ZINC000054627026    0.1400
     39 H39         0.1698    3.3093   54.0245 H       1  ZINC000054627026    0.1400
     40 H40         1.1610    5.2971   52.9646 H       1  ZINC000054627026    0.1400
     41 H41        -0.2273    6.7744   51.5692 H       1  ZINC000054627026    0.1400
     42 H42        -2.6102    6.2636   51.2249 H       1  ZINC000054627026    0.1400
@<TRIPOS>BOND
     1     1     2    2
     2     2     3   am
     3     2    18    1
     4     3     4    1
     5     3    29    1
     6     4    17   ar
     7     4     5   ar
     8     5     6   ar
     9     5    30    1
    10     6     7   ar
    11     6    31    1
    12     7    16   ar
    13     7     8    1
    14     8     9    1
    15     8    32    1
    16     9    10    1
    17     9    15    2
    18    10    14    1
    19    10    11    2
    20    11    12    1
    21    11    33    1
    22    12    13    2
    23    12    34    1
    24    13    14    1
    25    13    35    1
    26    15    16    1
    27    16    17   ar
    28    17    36    1
    29    18    28    1
    30    18    19    2
    31    19    20    1
    32    19    37    1
    33    20    21    1
    34    20    27    1
    35    21    26   ar
    36    21    22   ar
    37    22    23   ar
    38    22    38    1
    39    23    24   ar
    40    23    39    1
    41    24    25   ar
    42    24    40    1
    43    25    26   ar
    44    25    41    1
    45    26    42    1
    46    27    28    2
@<TRIPOS>SUBSTRUCTURE
     1 ZINC000054627026        1 TEMP              0 ****  ****    0 ROOT


##########                                Name:    ZINC000991934963
##########                DOCK_Rotatable_Bonds:                   8
##########                         Heavy_Atoms:                  27
##########                    Molecular_Weight:             370.495
##########                DOCK_Rotatable_Bonds:                   8
##########                       Formal_Charge:          -0.0499997
##########                     HBond_Acceptors:                   6
##########                        HBond_Donors:                   1
##########                         Heavy_Atoms:                  27
##########                          Grid_Score:          -29.304291
##########                     Grid_vdw_energy:          -29.171963
##########                      Grid_es_energy:           -0.132328
##########           Internal_energy_repulsive:           17.886587

@<TRIPOS>MOLECULE
ZINC000991934963
 57 61 1 0 0
SMALL
USER_CHARGES


@<TRIPOS>ATOM
      1 C1         -9.7266   -1.0336   52.8168 C.3     1  ZINC000991934963    0.0400
      2 O2         -9.7831   -0.7388   54.2140 O.3     1  ZINC000991934963   -0.2900
      3 C3         -8.8748    0.1444   54.6934 C.ar    1  ZINC000991934963    0.5000
      4 N4         -7.9973    0.6827   53.8624 N.ar    1  ZINC000991934963   -0.5700
      5 C5         -7.0964    1.5487   54.2973 C.ar    1  ZINC000991934963    0.1900
      6 C6         -7.0801    1.8893   55.6404 C.ar    1  ZINC000991934963   -0.2700
      7 C7         -8.0139    1.3061   56.4825 C.ar    1  ZINC000991934963    0.2200
      8 C8         -8.0346    1.6458   57.9505 C.3     1  ZINC000991934963    0.1000
      9 N9         -9.3493    1.3085   58.5127 N.3     1  ZINC000991934963   -0.4900
     10 C10       -10.2375    2.5129   58.5600 C.3     1  ZINC000991934963    0.0400
     11 C11       -10.7694    2.6146   60.0241 C.3     1  ZINC000991934963   -0.1400
     12 C12       -10.6380    1.1664   60.4909 C.3     1  ZINC000991934963    0.1700
     13 N13       -11.7026    0.3112   59.9603 N.am    1  ZINC000991934963   -0.7000
     14 C14       -12.9594    0.4280   60.4329 C.2     1  ZINC000991934963    0.5200
     15 O15       -13.2087    1.2401   61.2985 O.2     1  ZINC000991934963   -0.5300
     16 C16       -14.0548   -0.4505   59.8858 C.3     1  ZINC000991934963   -0.1100
     17 C17       -13.5591   -1.1567   58.6223 C.3     1  ZINC000991934963   -0.1300
     18 H18       -12.9161   -0.5623   57.9730 H       1  ZINC000991934963    0.1200
     19 C19       -14.5045   -2.1578   57.9554 C.3     1  ZINC000991934963   -0.1700
     20 C20       -13.2741   -2.6569   58.7171 C.3     1  ZINC000991934963   -0.1200
     21 H21       -13.4401   -3.1409   59.6795 H       1  ZINC000991934963    0.1000
     22 C22       -12.1090   -3.2088   57.8931 C.3     1  ZINC000991934963   -0.1200
     23 C23       -10.8915   -2.3033   57.6966 C.3     1  ZINC000991934963   -0.1800
     24 C24       -10.8033   -3.5118   58.6307 C.3     1  ZINC000991934963   -0.1800
     25 C25       -10.3153    0.8700   61.9515 C.3     1  ZINC000991934963   -0.1200
     26 C26        -9.5005   -0.4572   61.8524 C.3     1  ZINC000991934963   -0.1200
     27 C27        -8.8700   -0.4653   60.4267 C.3     1  ZINC000991934963   -0.1000
     28 C28        -9.2296    0.8665   59.8603 C.3     1  ZINC000991934963    0.0500
     29 H29        -8.5738    1.5875   60.3486 H       1  ZINC000991934963    0.0400
     30 N30        -8.8902    0.4517   55.9804 N.ar    1  ZINC000991934963   -0.5000
     31 H31        -8.7514   -1.4555   52.5737 H       1  ZINC000991934963    0.0600
     32 H32       -10.5064   -1.7525   52.5653 H       1  ZINC000991934963    0.1100
     33 H33        -9.8788   -0.1177   52.2457 H       1  ZINC000991934963    0.0600
     34 H34        -6.3824    1.9845   53.6141 H       1  ZINC000991934963    0.1700
     35 H35        -6.3556    2.5931   56.0227 H       1  ZINC000991934963    0.1500
     36 H36        -7.2618    1.0757   58.4663 H       1  ZINC000991934963    0.1000
     37 H37        -7.8469    2.7117   58.0796 H       1  ZINC000991934963    0.0600
     38 H38        -9.6684    3.4072   58.3061 H       1  ZINC000991934963    0.0600
     39 H39       -11.0704    2.3904   57.8675 H       1  ZINC000991934963    0.0800
     40 H40       -10.1445    3.2774   60.6227 H       1  ZINC000991934963    0.0800
     41 H41       -11.8099    2.9388   60.0412 H       1  ZINC000991934963    0.0900
     42 H42       -11.5029   -0.3392   59.2689 H       1  ZINC000991934963    0.4000
     43 H43       -14.3312   -1.1943   60.6330 H       1  ZINC000991934963    0.1000
     44 H44       -14.9238    0.1610   59.6430 H       1  ZINC000991934963    0.0900
     45 H45       -15.4797   -2.3133   58.4168 H       1  ZINC000991934963    0.0900
     46 H46       -14.4833   -2.2223   56.8675 H       1  ZINC000991934963    0.1000
     47 H47       -12.3859   -3.8664   57.0690 H       1  ZINC000991934963    0.1000
     48 H48       -10.3671   -2.3650   56.7429 H       1  ZINC000991934963    0.0900
     49 H49       -10.9205   -1.3145   58.1543 H       1  ZINC000991934963    0.0900
     50 H50       -10.7742   -3.3181   59.7029 H       1  ZINC000991934963    0.0900
     51 H51       -10.2208   -4.3686   58.2917 H       1  ZINC000991934963    0.0900
     52 H52        -9.7084    1.6658   62.3834 H       1  ZINC000991934963    0.0800
     53 H53       -11.2286    0.7217   62.5278 H       1  ZINC000991934963    0.0800
     54 H54        -8.7170   -0.4747   62.6099 H       1  ZINC000991934963    0.0700
     55 H55       -10.1623   -1.3145   61.9755 H       1  ZINC000991934963    0.0700
     56 H56        -7.7872   -0.5735   60.4892 H       1  ZINC000991934963    0.0700
     57 H57        -9.3001   -1.2650   59.8239 H       1  ZINC000991934963    0.0700
@<TRIPOS>BOND
     1     1     2    1
     2     1    31    1
     3     1    32    1
     4     1    33    1
     5     2     3    1
     6     3    30   ar
     7     3     4   ar
     8     4     5   ar
     9     5     6   ar
    10     5    34    1
    11     6     7   ar
    12     6    35    1
    13     7     8    1
    14     7    30   ar
    15     8     9    1
    16     8    36    1
    17     8    37    1
    18     9    28    1
    19     9    10    1
    20    10    11    1
    21    10    38    1
    22    10    39    1
    23    11    12    1
    24    11    40    1
    25    11    41    1
    26    12    28    1
    27    12    13    1
    28    12    25    1
    29    13    14   am
    30    13    42    1
    31    14    15    2
    32    14    16    1
    33    16    17    1
    34    16    43    1
    35    16    44    1
    36    17    18    1
    37    17    20    1
    38    17    19    1
    39    19    20    1
    40    19    45    1
    41    19    46    1
    42    20    21    1
    43    20    22    1
    44    22    24    1
    45    22    23    1
    46    22    47    1
    47    23    24    1
    48    23    48    1
    49    23    49    1
    50    24    50    1
    51    24    51    1
    52    25    26    1
    53    25    52    1
    54    25    53    1
    55    26    27    1
    56    26    54    1
    57    26    55    1
    58    27    28    1
    59    27    56    1
    60    27    57    1
    61    28    29    1
@<TRIPOS>SUBSTRUCTURE
     1 ZINC000991934963        1 TEMP              0 ****  ****    0 ROOT


##########                                Name:    ZINC000350493047
##########                DOCK_Rotatable_Bonds:                   7
##########                         Heavy_Atoms:                  24
##########                    Molecular_Weight:             330.387
##########                DOCK_Rotatable_Bonds:                   7
##########                       Formal_Charge:          -0.0300002
##########                     HBond_Acceptors:                   7
##########                        HBond_Donors:                   3
##########                         Heavy_Atoms:                  24
##########                          Grid_Score:          -29.295532
##########                     Grid_vdw_energy:          -24.580942
##########                      Grid_es_energy:           -4.714590
##########           Internal_energy_repulsive:            6.403837

@<TRIPOS>MOLECULE
ZINC000350493047
 46 48 1 0 0
SMALL
USER_CHARGES


@<TRIPOS>ATOM
      1 C1        -11.0725    1.5645   65.9807 C.3     1  <0>        -0.1600
      2 C2        -10.2289    0.6962   65.0451 C.3     1  <0>         0.2600
      3 H3        -10.4902   -0.3523   65.1885 H       1  <0>         0.1200
      4 N4         -8.8085    0.8911   65.3462 N.am    1  <0>        -0.7400
      5 C5         -8.1582    0.0078   66.1293 C.2     1  <0>         0.7100
      6 N6         -6.8511    0.1862   66.4050 N.am    1  <0>        -0.8600
      7 O7         -8.7508   -0.9501   66.5872 O.2     1  <0>        -0.5900
      8 C8        -10.4980    1.0899   63.6155 C.2     1  <0>         0.1700
      9 N9        -10.7681    2.2875   63.1870 N.2     1  <0>        -0.3800
     10 O10       -10.9344    2.2814   61.9856 O.3     1  <0>         0.0900
     11 C11       -10.7810    1.0340   61.5141 C.2     1  <0>         0.2400
     12 C12       -10.9010    0.6017   60.1074 C.ar    1  <0>        -0.0800
     13 C13       -10.5291   -0.6932   59.7385 C.ar    1  <0>        -0.0200
     14 C14       -10.6425   -1.0927   58.4250 C.ar    1  <0>        -0.2200
     15 C15       -11.1259   -0.2093   57.4675 C.ar    1  <0>         0.1700
     16 O16       -11.2358   -0.6068   56.1739 O.3     1  <0>        -0.3000
     17 C17       -10.2015   -0.1945   55.2783 C.3     1  <0>         0.0800
     18 C18        -9.9211   -1.3134   54.2733 C.3     1  <0>        -0.1500
     19 C19        -8.8137   -0.8720   53.3143 C.3     1  <0>        -0.1200
     20 C20        -9.2586    0.3860   52.5659 C.3     1  <0>        -0.1300
     21 C21        -9.5391    1.5051   53.5709 C.3     1  <0>        -0.1200
     22 C22       -10.6465    1.0636   54.5299 C.3     1  <0>        -0.1200
     23 C23       -11.4973    1.0794   57.8304 C.ar    1  <0>        -0.1600
     24 C24       -11.3924    1.4847   59.1429 C.ar    1  <0>        -0.0300
     25 N25       -10.4966    0.2689   62.5540 N.2     1  <0>        -0.4700
     26 H26       -10.8112    2.6129   65.8373 H       1  <0>         0.0600
     27 H27       -12.1292    1.4195   65.7567 H       1  <0>         0.0700
     28 H28       -10.8777    1.2797   67.0146 H       1  <0>         0.0800
     29 H29        -8.3360    1.6559   64.9818 H       1  <0>         0.4000
     30 H30        -6.3829   -0.4502   66.9677 H       1  <0>         0.4000
     31 H31        -6.3785    0.9510   66.0408 H       1  <0>         0.4200
     32 H32       -10.1526   -1.3801   60.4820 H       1  <0>         0.1400
     33 H33       -10.3552   -2.0937   58.1390 H       1  <0>         0.1400
     34 H34        -9.2952    0.0210   55.8444 H       1  <0>         0.0800
     35 H35        -9.6040   -2.2097   54.8065 H       1  <0>         0.0700
     36 H36       -10.8273   -1.5289   53.7072 H       1  <0>         0.0800
     37 H37        -7.9074   -0.6565   53.8805 H       1  <0>         0.0600
     38 H38        -8.6138   -1.6692   52.5983 H       1  <0>         0.0700
     39 H39        -8.4697    0.7006   51.8827 H       1  <0>         0.0700
     40 H40       -10.1649    0.1706   51.9998 H       1  <0>         0.0700
     41 H41        -8.6329    1.7205   54.1370 H       1  <0>         0.0700
     42 H42        -9.8562    2.4013   53.0377 H       1  <0>         0.0700
     43 H43       -11.5528    0.8481   53.9637 H       1  <0>         0.0800
     44 H44       -10.8463    1.8608   55.2458 H       1  <0>         0.0700
     45 H45       -11.8729    1.7629   57.0833 H       1  <0>         0.1400
     46 H46       -11.6817    2.4865   59.4242 H       1  <0>         0.1400
@<TRIPOS>BOND
     1     1     2    1
     2     1    26    1
     3     1    27    1
     4     1    28    1
     5     2     3    1
     6     2     4    1
     7     2     8    1
     8     4     5   am
     9     4    29    1
    10     5     6   am
    11     5     7    2
    12     6    30    1
    13     6    31    1
    14     8    25    1
    15     8     9    2
    16     9    10    1
    17    10    11    1
    18    11    12    1
    19    11    25    2
    20    12    24   ar
    21    12    13   ar
    22    13    14   ar
    23    13    32    1
    24    14    15   ar
    25    14    33    1
    26    15    16    1
    27    15    23   ar
    28    16    17    1
    29    17    22    1
    30    17    18    1
    31    17    34    1
    32    18    19    1
    33    18    35    1
    34    18    36    1
    35    19    20    1
    36    19    37    1
    37    19    38    1
    38    20    21    1
    39    20    39    1
    40    20    40    1
    41    21    22    1
    42    21    41    1
    43    21    42    1
    44    22    43    1
    45    22    44    1
    46    23    24   ar
    47    23    45    1
    48    24    46    1
@<TRIPOS>SUBSTRUCTURE
     1 <0>         1 TEMP              0 ****  ****    0 ROOT


##########                                Name:    ZINC000680410869
##########                DOCK_Rotatable_Bonds:                   6
##########                         Heavy_Atoms:                  24
##########                    Molecular_Weight:             335.354
##########                DOCK_Rotatable_Bonds:                   6
##########                       Formal_Charge:        -1.04308e-07
##########                     HBond_Acceptors:                   7
##########                        HBond_Donors:                   0
##########                         Heavy_Atoms:                  24
##########                          Grid_Score:          -29.290319
##########                     Grid_vdw_energy:          -28.539888
##########                      Grid_es_energy:           -0.750430
##########           Internal_energy_repulsive:            9.154133

@<TRIPOS>MOLECULE
ZINC000680410869
 43 45 1 0 0
SMALL
USER_CHARGES


@<TRIPOS>ATOM
      1 O1        -13.8721   -3.0230   61.1187 O.2     1  ZINC000680410869   -0.5200
      2 C2        -13.2712   -2.3854   60.2758 C.2     1  ZINC000680410869    0.6100
      3 C3        -12.0992   -1.5729   60.6608 C.2     1  ZINC000680410869    0.0100
      4 N4        -10.8347   -1.8567   60.4202 N.2     1  ZINC000680410869   -0.2500
      5 N5        -10.0778   -0.9329   60.8935 N.pl3   1  ZINC000680410869   -0.3500
      6 C6         -8.6154   -0.9214   60.8060 C.3     1  ZINC000680410869    0.5000
      7 F7         -8.2224   -0.2260   59.6574 F       1  ZINC000680410869   -0.1600
      8 F8         -8.0856   -0.2911   61.9369 F       1  ZINC000680410869   -0.1700
      9 C9        -10.8238    0.0261   61.4825 C.2     1  ZINC000680410869    0.0100
     10 C10       -12.1209   -0.3388   61.3529 C.2     1  ZINC000680410869   -0.1700
     11 N11       -13.6710   -2.4243   58.9894 N.am    1  ZINC000680410869   -0.6000
     12 C12       -14.8354   -3.2264   58.5818 C.3     1  ZINC000680410869    0.0800
     13 C13       -14.4276   -4.0998   57.3899 C.3     1  ZINC000680410869    0.0500
     14 O14       -13.8405   -3.2748   56.3807 O.3     1  ZINC000680410869   -0.3700
     15 C15       -12.6399   -2.6150   56.7895 C.3     1  ZINC000680410869    0.0800
     16 H16       -11.9094   -3.3562   57.1140 H       1  ZINC000680410869    0.0600
     17 C17       -12.0705   -1.8163   55.6154 C.3     1  ZINC000680410869   -0.1000
     18 C18       -10.5428   -1.8956   55.6376 C.3     1  ZINC000680410869   -0.0800
     19 C19        -9.9740   -0.9080   54.6517 C.ar    1  ZINC000680410869   -0.0800
     20 C20       -10.3381   -0.9735   53.3197 C.ar    1  ZINC000680410869   -0.1200
     21 C21        -9.8164   -0.0676   52.4153 C.ar    1  ZINC000680410869   -0.1200
     22 C22        -8.9310    0.9041   52.8428 C.ar    1  ZINC000680410869   -0.1300
     23 C23        -8.5676    0.9701   54.1749 C.ar    1  ZINC000680410869   -0.1200
     24 C24        -9.0926    0.0669   55.0802 C.ar    1  ZINC000680410869   -0.1200
     25 C25       -12.9596   -1.6610   57.9517 C.3     1  ZINC000680410869    0.0600
     26 H26        -8.2464   -1.9457   60.7546 H       1  ZINC000680410869    0.1700
     27 H27       -10.4547    0.9198   61.9636 H       1  ZINC000680410869    0.1900
     28 H28       -12.9891    0.1963   61.7080 H       1  ZINC000680410869    0.1700
     29 H29       -15.1525   -3.8602   59.4099 H       1  ZINC000680410869    0.1000
     30 H30       -15.6522   -2.5660   58.2906 H       1  ZINC000680410869    0.0800
     31 H31       -13.7037   -4.8464   57.7165 H       1  ZINC000680410869    0.0600
     32 H32       -15.3086   -4.5983   56.9855 H       1  ZINC000680410869    0.1100
     33 H33       -12.4424   -2.2319   54.6788 H       1  ZINC000680410869    0.0800
     34 H34       -12.3815   -0.7750   55.6995 H       1  ZINC000680410869    0.0800
     35 H35       -10.1812   -1.6591   56.6384 H       1  ZINC000680410869    0.0700
     36 H36       -10.2273   -2.9030   55.3660 H       1  ZINC000680410869    0.0800
     37 H37       -11.0299   -1.7326   52.9857 H       1  ZINC000680410869    0.1200
     38 H38       -10.1003   -0.1192   51.3745 H       1  ZINC000680410869    0.1200
     39 H39        -8.5228    1.6114   52.1361 H       1  ZINC000680410869    0.1200
     40 H40        -7.8756    1.7291   54.5090 H       1  ZINC000680410869    0.1200
     41 H41        -8.8088    0.1184   56.1209 H       1  ZINC000680410869    0.1200
     42 H42       -13.5867   -0.8443   57.5943 H       1  ZINC000680410869    0.0800
     43 H43       -12.0331   -1.2603   58.3631 H       1  ZINC000680410869    0.1300
@<TRIPOS>BOND
     1     1     2    2
     2     2     3    1
     3     2    11   am
     4     3    10    1
     5     3     4    2
     6     4     5    1
     7     5     6    1
     8     5     9    1
     9     6     7    1
    10     6     8    1
    11     6    26    1
    12     9    10    2
    13     9    27    1
    14    10    28    1
    15    11    25    1
    16    11    12    1
    17    12    13    1
    18    12    29    1
    19    12    30    1
    20    13    14    1
    21    13    31    1
    22    13    32    1
    23    14    15    1
    24    15    16    1
    25    15    17    1
    26    15    25    1
    27    17    18    1
    28    17    33    1
    29    17    34    1
    30    18    19    1
    31    18    35    1
    32    18    36    1
    33    19    24   ar
    34    19    20   ar
    35    20    21   ar
    36    20    37    1
    37    21    22   ar
    38    21    38    1
    39    22    23   ar
    40    22    39    1
    41    23    24   ar
    42    23    40    1
    43    24    41    1
    44    25    42    1
    45    25    43    1
@<TRIPOS>SUBSTRUCTURE
     1 ZINC000680410869        1 TEMP              0 ****  ****    0 ROOT


##########                                Name:    ZINC001342629575
##########                DOCK_Rotatable_Bonds:                   9
##########                         Heavy_Atoms:                  29
##########                    Molecular_Weight:             396.533
##########                DOCK_Rotatable_Bonds:                   9
##########                       Formal_Charge:         -0.00999976
##########                     HBond_Acceptors:                   6
##########                        HBond_Donors:                   0
##########                         Heavy_Atoms:                  29
##########                          Grid_Score:          -29.282576
##########                     Grid_vdw_energy:          -27.839005
##########                      Grid_es_energy:           -1.443570
##########           Internal_energy_repulsive:           17.682623

@<TRIPOS>MOLECULE
ZINC001342629575
 61 64 1 0 0
SMALL
USER_CHARGES


@<TRIPOS>ATOM
      1 C1        -11.1193   -0.4822   54.7554 C.2     1  ZINC001342629575   -0.1800
      2 C2        -11.9841   -0.2590   55.7137 C.2     1  ZINC001342629575   -0.1600
      3 C3        -11.5044    0.1662   57.0775 C.3     1  ZINC001342629575   -0.0800
      4 C4        -11.2342   -1.0736   57.9325 C.3     1  ZINC001342629575    0.0500
      5 H5        -10.3572   -1.5952   57.5492 H       1  ZINC001342629575    0.0900
      6 C6        -10.9868   -0.6559   59.3591 C.2     1  ZINC001342629575    0.2000
      7 N7        -11.8349   -0.7350   60.3450 N.2     1  ZINC001342629575   -0.2700
      8 N8        -11.2974   -0.2923   61.4254 N.2     1  ZINC001342629575   -0.3000
      9 C9        -10.0674    0.0962   61.1845 C.2     1  ZINC001342629575    0.3400
     10 N10        -9.1770    0.6290   62.1031 N.3     1  ZINC001342629575   -0.4300
     11 C11        -8.5255   -0.4442   62.8973 C.3     1  ZINC001342629575    0.0400
     12 C12        -8.0214    0.2664   64.1717 C.3     1  ZINC001342629575   -0.1200
     13 C13        -8.9164    1.5146   64.3154 C.3     1  ZINC001342629575   -0.1200
     14 C14        -9.8861    1.4531   63.1157 C.3     1  ZINC001342629575    0.0700
     15 H15       -10.8216    0.9755   63.4070 H       1  ZINC001342629575    0.0900
     16 C16       -10.1523    2.8583   62.5721 C.3     1  ZINC001342629575    0.1000
     17 H17        -9.2095    3.3370   62.3075 H       1  ZINC001342629575    0.0700
     18 C18       -10.8871    3.7011   63.6364 C.3     1  ZINC001342629575   -0.1400
     19 C19       -11.9018    4.5044   62.7780 C.3     1  ZINC001342629575   -0.1600
     20 C20       -12.2345    3.4710   61.6723 C.3     1  ZINC001342629575    0.0500
     21 O21       -10.9983    2.7809   61.4188 O.3     1  ZINC001342629575   -0.3700
     22 N22        -9.8287   -0.1291   59.8601 N.pl3   1  ZINC001342629575   -0.4600
     23 C23        -8.5916    0.1457   59.1251 C.3     1  ZINC001342629575    0.1100
     24 C24        -8.4540    1.6534   58.9039 C.3     1  ZINC001342629575    0.0500
     25 O25        -7.2001    1.9304   58.2771 O.3     1  ZINC001342629575   -0.3800
     26 C26        -6.9471    3.3220   58.0731 C.3     1  ZINC001342629575    0.0300
     27 C27       -12.4282   -1.9915   57.8777 C.ar    1  ZINC001342629575   -0.0900
     28 C28       -13.7003   -1.4826   58.0617 C.ar    1  ZINC001342629575   -0.0900
     29 C29       -14.7955   -2.3245   58.0114 C.ar    1  ZINC001342629575   -0.1200
     30 C30       -14.6187   -3.6754   57.7768 C.ar    1  ZINC001342629575   -0.1200
     31 C31       -13.3467   -4.1841   57.5919 C.ar    1  ZINC001342629575   -0.1200
     32 C32       -12.2519   -3.3414   57.6379 C.ar    1  ZINC001342629575   -0.1100
     33 H33       -11.4631   -0.7870   53.7779 H       1  ZINC001342629575    0.1000
     34 H34       -10.0628   -0.3571   54.9414 H       1  ZINC001342629575    0.1000
     35 H35       -13.0408   -0.3798   55.5264 H       1  ZINC001342629575    0.1000
     36 H36       -10.5861    0.7444   56.9758 H       1  ZINC001342629575    0.0900
     37 H37       -12.2682    0.7785   57.5567 H       1  ZINC001342629575    0.0800
     38 H38        -9.2481   -1.2187   63.1545 H       1  ZINC001342629575    0.0600
     39 H39        -7.6892   -0.8718   62.3444 H       1  ZINC001342629575    0.0800
     40 H40        -8.1369   -0.3840   65.0387 H       1  ZINC001342629575    0.0800
     41 H41        -6.9784    0.5601   64.0541 H       1  ZINC001342629575    0.0800
     42 H42        -9.4713    1.4768   65.2528 H       1  ZINC001342629575    0.0800
     43 H43        -8.3127    2.4209   64.2682 H       1  ZINC001342629575    0.0800
     44 H44       -11.4046    3.0597   64.3498 H       1  ZINC001342629575    0.0900
     45 H45       -10.1948    4.3710   64.1466 H       1  ZINC001342629575    0.0800
     46 H46       -12.7896    4.7605   63.3562 H       1  ZINC001342629575    0.0800
     47 H47       -11.4396    5.3966   62.3555 H       1  ZINC001342629575    0.0800
     48 H48       -12.9936    2.7721   62.0237 H       1  ZINC001342629575    0.0600
     49 H49       -12.5752    3.9788   60.7700 H       1  ZINC001342629575    0.0900
     50 H50        -7.7392   -0.2164   59.7000 H       1  ZINC001342629575    0.1000
     51 H51        -8.6214   -0.3617   58.1609 H       1  ZINC001342629575    0.1100
     52 H52        -9.2648    2.0023   58.2643 H       1  ZINC001342629575    0.0600
     53 H53        -8.5017    2.1673   59.8640 H       1  ZINC001342629575    0.0600
     54 H54        -5.9766    3.4483   57.5931 H       1  ZINC001342629575    0.0900
     55 H55        -7.7250    3.7432   57.4363 H       1  ZINC001342629575    0.0400
     56 H56        -6.9466    3.8359   59.0344 H       1  ZINC001342629575    0.0400
     57 H57       -13.8384   -0.4274   58.2450 H       1  ZINC001342629575    0.1300
     58 H58       -15.7892   -1.9271   58.1558 H       1  ZINC001342629575    0.1200
     59 H59       -15.4742   -4.3333   57.7382 H       1  ZINC001342629575    0.1200
     60 H60       -13.2086   -5.2394   57.4089 H       1  ZINC001342629575    0.1200
     61 H61       -11.2581   -3.7389   57.4934 H       1  ZINC001342629575    0.1200
@<TRIPOS>BOND
     1     1     2    2
     2     1    33    1
     3     1    34    1
     4     2     3    1
     5     2    35    1
     6     3     4    1
     7     3    36    1
     8     3    37    1
     9     4     5    1
    10     4     6    1
    11     4    27    1
    12     6    22    1
    13     6     7    2
    14     7     8    1
    15     8     9    2
    16     9    10    1
    17     9    22    1
    18    10    14    1
    19    10    11    1
    20    11    12    1
    21    11    38    1
    22    11    39    1
    23    12    13    1
    24    12    40    1
    25    12    41    1
    26    13    14    1
    27    13    42    1
    28    13    43    1
    29    14    15    1
    30    14    16    1
    31    16    17    1
    32    16    21    1
    33    16    18    1
    34    18    19    1
    35    18    44    1
    36    18    45    1
    37    19    20    1
    38    19    46    1
    39    19    47    1
    40    20    21    1
    41    20    48    1
    42    20    49    1
    43    22    23    1
    44    23    24    1
    45    23    50    1
    46    23    51    1
    47    24    25    1
    48    24    52    1
    49    24    53    1
    50    25    26    1
    51    26    54    1
    52    26    55    1
    53    26    56    1
    54    27    32   ar
    55    27    28   ar
    56    28    29   ar
    57    28    57    1
    58    29    30   ar
    59    29    58    1
    60    30    31   ar
    61    30    59    1
    62    31    32   ar
    63    31    60    1
    64    32    61    1
@<TRIPOS>SUBSTRUCTURE
     1 ZINC001342629575        1 TEMP              0 ****  ****    0 ROOT


##########                                Name:    ZINC000151820600
##########                DOCK_Rotatable_Bonds:                  10
##########                         Heavy_Atoms:                  25
##########                    Molecular_Weight:             388.915
##########                DOCK_Rotatable_Bonds:                  10
##########                       Formal_Charge:           0.0499998
##########                     HBond_Acceptors:                   8
##########                        HBond_Donors:                   2
##########                         Heavy_Atoms:                  25
##########                          Grid_Score:          -29.264666
##########                     Grid_vdw_energy:          -25.889088
##########                      Grid_es_energy:           -3.375579
##########           Internal_energy_repulsive:           13.307528

@<TRIPOS>MOLECULE
ZINC000151820600
 50 50 1 0 0
SMALL
USER_CHARGES


@<TRIPOS>ATOM
      1 C1        -15.2434    1.5836   61.4568 C.3     1  ZINC000151820600   -0.4900
      2 S2        -15.4632    0.6720   59.9040 S.o     1  ZINC000151820600    1.2500
      3 O3        -16.8419    0.6471   59.5605 O.2     1  ZINC000151820600   -0.8500
      4 C4        -14.9166   -1.0034   60.3335 C.3     1  ZINC000151820600   -0.4500
      5 C5        -15.0427   -1.9108   59.1080 C.3     1  ZINC000151820600   -0.1100
      6 C6        -13.7759   -2.7574   58.9678 C.3     1  ZINC000151820600    0.1200
      7 N7        -12.6444   -1.8907   58.6290 N.am    1  ZINC000151820600   -0.7200
      8 C8        -11.4755   -2.4324   58.2331 C.2     1  ZINC000151820600    0.5200
      9 O9        -11.3600   -3.6376   58.1586 O.2     1  ZINC000151820600   -0.5200
     10 C10       -10.3122   -1.5409   57.8828 C.3     1  ZINC000151820600    0.1900
     11 H11        -9.4486   -2.1545   57.6263 H       1  ZINC000151820600    0.1300
     12 N12       -10.6697   -0.6984   56.7388 N.am    1  ZINC000151820600   -0.6900
     13 C13       -10.4989   -1.1585   55.4836 C.2     1  ZINC000151820600    0.6600
     14 O14       -10.0472   -2.2716   55.3007 O.2     1  ZINC000151820600   -0.5600
     15 O15       -10.8290   -0.3849   54.4323 O.3     1  ZINC000151820600   -0.3600
     16 C16        -9.7433    0.0705   53.5824 C.3     1  ZINC000151820600    0.1400
     17 C17        -9.3842   -1.0290   52.5808 C.3     1  ZINC000151820600   -0.1800
     18 C18       -10.1803    1.3266   52.8259 C.3     1  ZINC000151820600   -0.1400
     19 C19        -8.5216    0.3936   54.4447 C.3     1  ZINC000151820600   -0.1800
     20 C20        -9.9751   -0.6677   59.0638 C.ar    1  ZINC000151820600   -0.1000
     21 C21        -8.9882   -1.0554   59.9506 C.ar    1  ZINC000151820600   -0.0900
     22 C22        -8.6780   -0.2545   61.0340 C.ar    1  ZINC000151820600   -0.1000
     23 C23        -9.3549    0.9340   61.2314 C.ar    1  ZINC000151820600   -0.1000
     24 C24       -10.3431    1.3227   60.3440 C.ar    1  ZINC000151820600   -0.0300
     25 Cl25      -11.1935    2.8159   60.5909 Cl      1  ZINC000151820600   -0.0600
     26 C26       -10.6490    0.5237   59.2571 C.ar    1  ZINC000151820600   -0.0900
     27 H27       -15.8570    1.1293   62.2348 H       1  ZINC000151820600    0.0800
     28 H28       -14.1952    1.5481   61.7537 H       1  ZINC000151820600    0.1100
     29 H29       -15.5459    2.6212   61.3151 H       1  ZINC000151820600    0.1100
     30 H30       -13.8765   -0.9742   60.6584 H       1  ZINC000151820600    0.1200
     31 H31       -15.5384   -1.3930   61.1395 H       1  ZINC000151820600    0.0900
     32 H32       -15.9058   -2.5656   59.2280 H       1  ZINC000151820600    0.0800
     33 H33       -15.1718   -1.2994   58.2149 H       1  ZINC000151820600    0.0900
     34 H34       -13.5738   -3.2675   59.9096 H       1  ZINC000151820600    0.0800
     35 H35       -13.9177   -3.4953   58.1781 H       1  ZINC000151820600    0.0700
     36 H36       -12.7364   -0.9270   58.6896 H       1  ZINC000151820600    0.4000
     37 H37       -11.0292    0.1906   56.8848 H       1  ZINC000151820600    0.4200
     38 H38       -10.2546   -1.2592   51.9664 H       1  ZINC000151820600    0.0600
     39 H39        -8.5692   -0.6871   51.9427 H       1  ZINC000151820600    0.0700
     40 H40        -9.0728   -1.9238   53.1197 H       1  ZINC000151820600    0.0900
     41 H41       -10.4362    2.1099   53.5394 H       1  ZINC000151820600    0.0700
     42 H42        -9.3653    1.6684   52.1879 H       1  ZINC000151820600    0.0800
     43 H43       -11.0508    1.0963   52.2115 H       1  ZINC000151820600    0.0700
     44 H44        -8.2103   -0.5012   54.9837 H       1  ZINC000151820600    0.0900
     45 H45        -7.7067    0.7355   53.8067 H       1  ZINC000151820600    0.0700
     46 H46        -8.7774    1.1769   55.1583 H       1  ZINC000151820600    0.0600
     47 H47        -8.4594   -1.9845   59.7971 H       1  ZINC000151820600    0.1300
     48 H48        -7.9068   -0.5579   61.7265 H       1  ZINC000151820600    0.1400
     49 H49        -9.1131    1.5592   62.0781 H       1  ZINC000151820600    0.1400
     50 H50       -11.4201    0.8266   58.5641 H       1  ZINC000151820600    0.1400
@<TRIPOS>BOND
     1     1     2    1
     2     1    27    1
     3     1    28    1
     4     1    29    1
     5     2     3    2
     6     2     4    1
     7     4     5    1
     8     4    30    1
     9     4    31    1
    10     5     6    1
    11     5    32    1
    12     5    33    1
    13     6     7    1
    14     6    34    1
    15     6    35    1
    16     7     8   am
    17     7    36    1
    18     8     9    2
    19     8    10    1
    20    10    11    1
    21    10    12    1
    22    10    20    1
    23    12    13   am
    24    12    37    1
    25    13    14    2
    26    13    15    1
    27    15    16    1
    28    16    17    1
    29    16    18    1
    30    16    19    1
    31    17    38    1
    32    17    39    1
    33    17    40    1
    34    18    41    1
    35    18    42    1
    36    18    43    1
    37    19    44    1
    38    19    45    1
    39    19    46    1
    40    20    26   ar
    41    20    21   ar
    42    21    22   ar
    43    21    47    1
    44    22    23   ar
    45    22    48    1
    46    23    24   ar
    47    23    49    1
    48    24    25    1
    49    24    26   ar
    50    26    50    1
@<TRIPOS>SUBSTRUCTURE
     1 ZINC000151820600        1 TEMP              0 ****  ****    0 ROOT


##########                                Name:    ZINC000847397179
##########                DOCK_Rotatable_Bonds:                   9
##########                         Heavy_Atoms:                  25
##########                    Molecular_Weight:             350.461
##########                DOCK_Rotatable_Bonds:                   9
##########                       Formal_Charge:          0.00999979
##########                     HBond_Acceptors:                   7
##########                        HBond_Donors:                   2
##########                         Heavy_Atoms:                  25
##########                          Grid_Score:          -29.261852
##########                     Grid_vdw_energy:          -26.765512
##########                      Grid_es_energy:           -2.496339
##########           Internal_energy_repulsive:           86.859871

@<TRIPOS>MOLECULE
ZINC000847397179
 55 56 1 0 0
SMALL
USER_CHARGES


@<TRIPOS>ATOM
      1 C1         -7.0567    3.0263   57.6632 C.3     1  ZINC000847397179   -0.1500
      2 C2         -8.4767    2.7051   57.1928 C.3     1  ZINC000847397179   -0.1000
      3 H3         -9.1909    3.3036   57.7583 H       1  ZINC000847397179    0.0900
      4 C4         -8.7648    1.2195   57.4182 C.3     1  ZINC000847397179   -0.0200
      5 C5         -8.6998    0.9132   58.8923 C.2     1  ZINC000847397179    0.0100
      6 C6         -8.9780    1.7715   59.8919 C.2     1  ZINC000847397179   -0.0500
      7 N7         -8.7941    1.0879   61.0636 N.pl3   1  ZINC000847397179   -0.5700
      8 C8         -8.4096   -0.1651   60.7388 C.2     1  ZINC000847397179    0.1800
      9 N9         -8.3602   -0.2638   59.4385 N.2     1  ZINC000847397179   -0.4900
     10 C10        -8.6040    3.0245   55.7255 C.2     1  ZINC000847397179    0.5200
     11 O11        -9.6764    3.3593   55.2686 O.2     1  ZINC000847397179   -0.5300
     12 N12        -7.5261    2.9382   54.9211 N.am    1  ZINC000847397179   -0.7400
     13 C13        -7.6502    3.2470   53.4944 C.3     1  ZINC000847397179    0.1200
     14 C14        -6.5273    4.1997   53.0792 C.3     1  ZINC000847397179    0.1500
     15 H15        -6.6467    5.1522   53.5953 H       1  ZINC000847397179    0.0800
     16 C16        -5.1719    3.5851   53.4425 C.3     1  ZINC000847397179   -0.1300
     17 C17        -4.0510    4.4754   52.9013 C.3     1  ZINC000847397179   -0.1200
     18 C18        -4.1520    4.5552   51.3763 C.3     1  ZINC000847397179   -0.1400
     19 C19        -5.4958    5.1808   50.9895 C.3     1  ZINC000847397179    0.1100
     20 N20        -6.5773    4.4167   51.6269 N.am    1  ZINC000847397179   -0.5900
     21 C21        -7.5925    3.9204   50.8925 C.2     1  ZINC000847397179    0.6500
     22 O22        -8.4807    3.2902   51.4314 O.2     1  ZINC000847397179   -0.5500
     23 O23        -7.6225    4.1228   49.5618 O.3     1  ZINC000847397179   -0.3600
     24 C24        -8.6469    5.0179   49.0541 C.3     1  ZINC000847397179    0.1400
     25 C25        -8.1861    5.6184   47.7245 C.3     1  ZINC000847397179   -0.1800
     26 C26        -9.9450    4.2374   48.8385 C.3     1  ZINC000847397179   -0.1400
     27 C27        -8.8890    6.1411   50.0644 C.3     1  ZINC000847397179   -0.1800
     28 H28        -6.3425    2.4278   57.0978 H       1  ZINC000847397179    0.0500
     29 H29        -6.8515    4.0847   57.5027 H       1  ZINC000847397179    0.0500
     30 H30        -6.9646    2.7952   58.7245 H       1  ZINC000847397179    0.1000
     31 H31        -9.7593    0.9809   57.0410 H       1  ZINC000847397179    0.0800
     32 H32        -8.0227    0.6212   56.8896 H       1  ZINC000847397179    0.0800
     33 H33        -9.2866    2.8014   59.7891 H       1  ZINC000847397179    0.1800
     34 H34        -8.9169    1.4383   61.9597 H       1  ZINC000847397179    0.4200
     35 H35        -8.1842   -0.9559   61.4391 H       1  ZINC000847397179    0.2100
     36 H36        -6.6682    2.6716   55.2868 H       1  ZINC000847397179    0.3900
     37 H37        -7.5781    2.3262   52.9157 H       1  ZINC000847397179    0.0800
     38 H38        -8.6148    3.7190   53.3074 H       1  ZINC000847397179    0.1000
     39 H39        -5.0854    3.5098   54.5265 H       1  ZINC000847397179    0.0800
     40 H40        -5.0928    2.5917   53.0009 H       1  ZINC000847397179    0.0700
     41 H41        -4.1454    5.4755   53.3242 H       1  ZINC000847397179    0.0700
     42 H42        -3.0854    4.0532   53.1797 H       1  ZINC000847397179    0.0700
     43 H43        -3.3395    5.1704   50.9896 H       1  ZINC000847397179    0.0800
     44 H44        -4.0825    3.5527   50.9541 H       1  ZINC000847397179    0.0700
     45 H45        -5.5300    6.2146   51.3333 H       1  ZINC000847397179    0.0700
     46 H46        -5.6152    5.1495   49.9066 H       1  ZINC000847397179    0.0900
     47 H47        -8.0135    4.8183   47.0047 H       1  ZINC000847397179    0.0600
     48 H48        -8.9550    6.2905   47.3434 H       1  ZINC000847397179    0.0700
     49 H49        -7.2612    6.1745   47.8781 H       1  ZINC000847397179    0.0900
     50 H50       -10.2734    3.8096   49.7858 H       1  ZINC000847397179    0.0700
     51 H51       -10.7139    4.9094   48.4574 H       1  ZINC000847397179    0.0800
     52 H52        -9.7726    3.4372   48.1187 H       1  ZINC000847397179    0.0700
     53 H53        -7.9641    6.6973   50.2179 H       1  ZINC000847397179    0.0900
     54 H54        -9.6579    6.8132   49.6833 H       1  ZINC000847397179    0.0700
     55 H55        -9.2173    5.7133   51.0116 H       1  ZINC000847397179    0.0600
@<TRIPOS>BOND
     1     1     2    1
     2     1    28    1
     3     1    29    1
     4     1    30    1
     5     2     3    1
     6     2     4    1
     7     2    10    1
     8     4     5    1
     9     4    31    1
    10     4    32    1
    11     5     9    1
    12     5     6    2
    13     6     7    1
    14     6    33    1
    15     7     8    1
    16     7    34    1
    17     8     9    2
    18     8    35    1
    19    10    11    2
    20    10    12   am
    21    12    13    1
    22    12    36    1
    23    13    14    1
    24    13    37    1
    25    13    38    1
    26    14    15    1
    27    14    20    1
    28    14    16    1
    29    16    17    1
    30    16    39    1
    31    16    40    1
    32    17    18    1
    33    17    41    1
    34    17    42    1
    35    18    19    1
    36    18    43    1
    37    18    44    1
    38    19    20    1
    39    19    45    1
    40    19    46    1
    41    20    21   am
    42    21    22    2
    43    21    23    1
    44    23    24    1
    45    24    25    1
    46    24    26    1
    47    24    27    1
    48    25    47    1
    49    25    48    1
    50    25    49    1
    51    26    50    1
    52    26    51    1
    53    26    52    1
    54    27    53    1
    55    27    54    1
    56    27    55    1
@<TRIPOS>SUBSTRUCTURE
     1 ZINC000847397179        1 TEMP              0 ****  ****    0 ROOT


##########                                Name:    ZINC000840649129
##########                DOCK_Rotatable_Bonds:                   8
##########                         Heavy_Atoms:                  26
##########                    Molecular_Weight:             376.839
##########                DOCK_Rotatable_Bonds:                   8
##########                       Formal_Charge:          -0.0199998
##########                     HBond_Acceptors:                   7
##########                        HBond_Donors:                   3
##########                         Heavy_Atoms:                  26
##########                          Grid_Score:          -29.250988
##########                     Grid_vdw_energy:          -27.882006
##########                      Grid_es_energy:           -1.368982
##########           Internal_energy_repulsive:           13.336693

@<TRIPOS>MOLECULE
ZINC000840649129
 47 48 1 0 0
SMALL
USER_CHARGES


@<TRIPOS>ATOM
      1 C1        -12.3161    2.2202   64.0163 C.3     1  ZINC000840649129    0.0200
      2 O2        -11.7782    0.8985   63.9424 O.3     1  ZINC000840649129   -0.2900
      3 C3        -10.5529    0.7002   64.4919 C.ar    1  ZINC000840649129    0.1400
      4 C4        -10.3558    0.9171   65.8469 C.ar    1  ZINC000840649129   -0.1700
      5 C5         -9.1105    0.7162   66.4077 C.ar    1  ZINC000840649129   -0.1200
      6 C6         -8.0448    0.2945   65.6195 C.ar    1  ZINC000840649129    0.1700
      7 N7         -6.7859    0.0934   66.1970 N.pl3   1  ZINC000840649129   -0.8800
      8 C8         -8.2266    0.0729   64.2652 C.ar    1  ZINC000840649129   -0.1000
      9 C9         -9.4853    0.2701   63.6916 C.ar    1  ZINC000840649129   -0.1200
     10 C10        -9.6875    0.0359   62.2504 C.2     1  ZINC000840649129    0.5100
     11 O11       -10.4636   -0.8214   61.8772 O.2     1  ZINC000840649129   -0.4800
     12 O12        -9.0117    0.7725   61.3468 O.3     1  ZINC000840649129   -0.3200
     13 C13        -9.7816    1.3529   60.2611 C.3     1  ZINC000840649129    0.0800
     14 H14       -10.8450    1.2726   60.4863 H       1  ZINC000840649129    0.1200
     15 C15        -9.4819    0.6143   58.9820 C.2     1  ZINC000840649129    0.5200
     16 O16        -8.4689   -0.0456   58.8859 O.2     1  ZINC000840649129   -0.4900
     17 N17       -10.3397    0.6872   57.9451 N.am    1  ZINC000840649129   -0.6600
     18 C18       -10.0614    0.0012   56.7570 C.ar    1  ZINC000840649129    0.1600
     19 C19       -10.3539   -1.3515   56.6500 C.ar    1  ZINC000840649129   -0.1400
     20 C20       -10.0785   -2.0258   55.4759 C.ar    1  ZINC000840649129   -0.0900
     21 C21        -9.5121   -1.3552   54.4078 C.ar    1  ZINC000840649129   -0.1300
     22 C22        -9.2187   -0.0075   54.5106 C.ar    1  ZINC000840649129   -0.0900
     23 C23        -9.4969    0.6743   55.6798 C.ar    1  ZINC000840649129   -0.0700
     24 Cl24       -9.1290    2.3661   55.8082 Cl      1  ZINC000840649129   -0.0700
     25 C25        -9.4043    2.8267   60.0993 C.3     1  ZINC000840649129   -0.1100
     26 C26        -9.4302    3.5128   61.4666 C.3     1  ZINC000840649129   -0.1600
     27 C27        -7.9990    2.9309   59.5031 C.3     1  ZINC000840649129   -0.1500
     28 H28       -13.2970    2.2405   63.5411 H       1  ZINC000840649129    0.1000
     29 H29       -12.4125    2.5154   65.0611 H       1  ZINC000840649129    0.0600
     30 H30       -11.6494    2.9131   63.5029 H       1  ZINC000840649129    0.0600
     31 H31       -11.1784    1.2446   66.4652 H       1  ZINC000840649129    0.1400
     32 H32        -8.9629    0.8875   67.4638 H       1  ZINC000840649129    0.1300
     33 H33        -6.6573    0.2480   67.1460 H       1  ZINC000840649129    0.4000
     34 H34        -6.0420   -0.2006   65.6484 H       1  ZINC000840649129    0.4000
     35 H35        -7.3985   -0.2548   63.6543 H       1  ZINC000840649129    0.1400
     36 H36       -11.1499    1.2149   58.0220 H       1  ZINC000840649129    0.4200
     37 H37       -10.7960   -1.8765   57.4838 H       1  ZINC000840649129    0.1700
     38 H38       -10.3057   -3.0783   55.3926 H       1  ZINC000840649129    0.1300
     39 H39        -9.2980   -1.8849   53.4914 H       1  ZINC000840649129    0.1300
     40 H40        -8.7760    0.5135   53.6745 H       1  ZINC000840649129    0.1400
     41 H41       -10.1179    3.3137   59.4348 H       1  ZINC000840649129    0.0900
     42 H42        -8.8133    2.9501   62.1673 H       1  ZINC000840649129    0.0700
     43 H43        -9.0403    4.5263   61.3720 H       1  ZINC000840649129    0.0800
     44 H44       -10.4554    3.5508   61.8346 H       1  ZINC000840649129    0.0600
     45 H45        -7.9805    2.4421   58.5289 H       1  ZINC000840649129    0.0500
     46 H46        -7.7301    3.9809   59.3878 H       1  ZINC000840649129    0.0600
     47 H47        -7.2853    2.4438   60.1675 H       1  ZINC000840649129    0.0700
@<TRIPOS>BOND
     1     1     2    1
     2     1    28    1
     3     1    29    1
     4     1    30    1
     5     2     3    1
     6     3     9   ar
     7     3     4   ar
     8     4     5   ar
     9     4    31    1
    10     5     6   ar
    11     5    32    1
    12     6     7    1
    13     6     8   ar
    14     7    33    1
    15     7    34    1
    16     8     9   ar
    17     8    35    1
    18     9    10    1
    19    10    11    2
    20    10    12    1
    21    12    13    1
    22    13    14    1
    23    13    15    1
    24    13    25    1
    25    15    16    2
    26    15    17   am
    27    17    18    1
    28    17    36    1
    29    18    23   ar
    30    18    19   ar
    31    19    20   ar
    32    19    37    1
    33    20    21   ar
    34    20    38    1
    35    21    22   ar
    36    21    39    1
    37    22    23   ar
    38    22    40    1
    39    23    24    1
    40    25    26    1
    41    25    27    1
    42    25    41    1
    43    26    42    1
    44    26    43    1
    45    26    44    1
    46    27    45    1
    47    27    46    1
    48    27    47    1
@<TRIPOS>SUBSTRUCTURE
     1 ZINC000840649129        1 TEMP              0 ****  ****    0 ROOT


##########                                Name:    ZINC001400108193
##########                DOCK_Rotatable_Bonds:                   9
##########                         Heavy_Atoms:                  25
##########                    Molecular_Weight:              344.41
##########                DOCK_Rotatable_Bonds:                   9
##########                       Formal_Charge:           0.0200001
##########                     HBond_Acceptors:                   6
##########                        HBond_Donors:                   2
##########                         Heavy_Atoms:                  25
##########                          Grid_Score:          -29.249043
##########                     Grid_vdw_energy:          -29.579081
##########                      Grid_es_energy:            0.330039
##########           Internal_energy_repulsive:            5.929558

@<TRIPOS>MOLECULE
ZINC001400108193
 49 50 1 0 0
SMALL
USER_CHARGES


@<TRIPOS>ATOM
      1 C1         -8.2291    5.6454   48.4846 C.3     1  ZINC001400108193   -0.0800
      2 C2         -7.3994    4.8711   49.4762 C.2     1  ZINC001400108193   -0.0100
      3 C3         -7.8827    4.0620   50.4312 C.2     1  ZINC001400108193   -0.1600
      4 C4         -6.7106    3.5334   51.1443 C.2     1  ZINC001400108193   -0.2300
      5 C5         -6.7077    2.5975   52.2827 C.2     1  ZINC001400108193    0.5900
      6 O6         -5.6551    2.2597   52.7896 O.2     1  ZINC001400108193   -0.5300
      7 N7         -7.8717    2.1161   52.7622 N.am    1  ZINC001400108193   -0.7300
      8 C8         -7.8688    1.1844   53.8928 C.3     1  ZINC001400108193    0.1100
      9 C9         -9.0889    0.2660   53.7999 C.3     1  ZINC001400108193    0.1300
     10 H10        -9.9366    0.8267   53.4061 H       1  ZINC001400108193    0.1000
     11 C11        -8.7754   -0.9061   52.8678 C.3     1  ZINC001400108193   -0.1600
     12 N12        -9.4182   -0.2449   55.1329 N.am    1  ZINC001400108193   -0.7300
     13 C13       -10.6829   -0.6111   55.4208 C.2     1  ZINC001400108193    0.5200
     14 O14       -11.5481   -0.5192   54.5758 O.2     1  ZINC001400108193   -0.5100
     15 C15       -11.0220   -1.1349   56.7925 C.3     1  ZINC001400108193    0.0700
     16 H16       -11.5793   -0.3771   57.3433 H       1  ZINC001400108193    0.1000
     17 C17       -11.8743   -2.3985   56.6596 C.3     1  ZINC001400108193   -0.1800
     18 O18        -9.8172   -1.4447   57.4955 O.3     1  ZINC001400108193   -0.2800
     19 C19        -9.6629   -0.8939   58.7282 C.ar    1  ZINC001400108193    0.1200
     20 C20        -9.9652   -1.6334   59.8625 C.ar    1  ZINC001400108193   -0.2100
     21 C21        -9.8072   -1.0713   61.1144 C.ar    1  ZINC001400108193   -0.0800
     22 C22        -9.3530    0.2289   61.2374 C.ar    1  ZINC001400108193   -0.1200
     23 C23        -9.1874    0.8416   62.6043 C.3     1  ZINC001400108193   -0.1100
     24 C24        -9.0460    0.9661   60.1087 C.ar    1  ZINC001400108193   -0.0800
     25 C25        -9.2023    0.4086   58.8545 C.ar    1  ZINC001400108193   -0.1400
     26 C26        -5.6265    4.0952   50.5358 C.2     1  ZINC001400108193    0.0200
     27 O27        -6.0591    4.8809   49.5449 O.3     1  ZINC001400108193   -0.1700
     28 H28        -8.4683    6.6253   48.8979 H       1  ZINC001400108193    0.0900
     29 H29        -7.6674    5.7689   47.5587 H       1  ZINC001400108193    0.0800
     30 H30        -9.1517    5.1021   48.2802 H       1  ZINC001400108193    0.0900
     31 H31        -8.9206    3.8433   50.6343 H       1  ZINC001400108193    0.1600
     32 H32        -8.7114    2.3865   52.3587 H       1  ZINC001400108193    0.4000
     33 H33        -7.9068    1.7458   54.8264 H       1  ZINC001400108193    0.0800
     34 H34        -6.9594    0.5842   53.8666 H       1  ZINC001400108193    0.0900
     35 H35        -9.6446   -1.5603   52.8016 H       1  ZINC001400108193    0.0700
     36 H36        -8.5303   -0.5259   51.8760 H       1  ZINC001400108193    0.0700
     37 H37        -7.9276   -1.4668   53.2616 H       1  ZINC001400108193    0.0600
     38 H38        -8.7260   -0.3194   55.8084 H       1  ZINC001400108193    0.4000
     39 H39       -12.7934   -2.1623   56.1234 H       1  ZINC001400108193    0.0800
     40 H40       -11.3169   -3.1564   56.1089 H       1  ZINC001400108193    0.0800
     41 H41       -12.1196   -2.7775   57.6518 H       1  ZINC001400108193    0.0800
     42 H42       -10.3243   -2.6474   59.7666 H       1  ZINC001400108193    0.1300
     43 H43       -10.0427   -1.6463   61.9977 H       1  ZINC001400108193    0.1300
     44 H44        -8.1789    0.6477   62.9696 H       1  ZINC001400108193    0.0700
     45 H45        -9.3507    1.9175   62.5423 H       1  ZINC001400108193    0.0700
     46 H46        -9.9127    0.4028   63.2895 H       1  ZINC001400108193    0.0700
     47 H47        -8.6875    1.9801   60.2076 H       1  ZINC001400108193    0.1300
     48 H48        -8.9659    0.9862   57.9731 H       1  ZINC001400108193    0.1300
     49 H49        -4.5941    3.9307   50.8070 H       1  ZINC001400108193    0.2100
@<TRIPOS>BOND
     1     1     2    1
     2     1    28    1
     3     1    29    1
     4     1    30    1
     5     2    27    1
     6     2     3    2
     7     3     4    1
     8     3    31    1
     9     4     5    1
    10     4    26    2
    11     5     6    2
    12     5     7   am
    13     7     8    1
    14     7    32    1
    15     8     9    1
    16     8    33    1
    17     8    34    1
    18     9    10    1
    19     9    11    1
    20     9    12    1
    21    11    35    1
    22    11    36    1
    23    11    37    1
    24    12    13   am
    25    12    38    1
    26    13    14    2
    27    13    15    1
    28    15    16    1
    29    15    17    1
    30    15    18    1
    31    17    39    1
    32    17    40    1
    33    17    41    1
    34    18    19    1
    35    19    25   ar
    36    19    20   ar
    37    20    21   ar
    38    20    42    1
    39    21    22   ar
    40    21    43    1
    41    22    23    1
    42    22    24   ar
    43    23    44    1
    44    23    45    1
    45    23    46    1
    46    24    25   ar
    47    24    47    1
    48    25    48    1
    49    26    27    1
    50    26    49    1
@<TRIPOS>SUBSTRUCTURE
     1 ZINC001400108193        1 TEMP              0 ****  ****    0 ROOT


##########                                Name:    ZINC000328606936
##########                DOCK_Rotatable_Bonds:                   6
##########                         Heavy_Atoms:                  23
##########                    Molecular_Weight:             338.428
##########                DOCK_Rotatable_Bonds:                   6
##########                       Formal_Charge:           0.0100001
##########                     HBond_Acceptors:                   7
##########                        HBond_Donors:                   2
##########                         Heavy_Atoms:                  23
##########                          Grid_Score:          -29.240734
##########                     Grid_vdw_energy:          -23.175949
##########                      Grid_es_energy:           -6.064784
##########           Internal_energy_repulsive:            6.114156

@<TRIPOS>MOLECULE
ZINC000328606936
 45 47 1 0 0
SMALL
USER_CHARGES


@<TRIPOS>ATOM
      1 C1         -9.6054    2.1983   63.7136 C.3     1  <0>        -0.0500
      2 N2         -9.3973    0.8896   63.0797 N.4     1  <0>        -0.3500
      3 H3        -10.2665    0.3770   63.0727 H       1  <0>         0.4200
      4 C4         -8.3895    0.1341   63.8356 C.3     1  <0>        -0.0900
      5 C5         -8.9587   -0.2637   65.1731 C.2     1  <0>         0.4900
      6 O6        -10.1597   -0.1915   65.3703 O.co2   1  <0>        -0.6700
      7 O7         -8.2182   -0.6577   66.0579 O.co2   1  <0>        -0.6400
      8 C8         -8.9316    1.0823   61.6998 C.3     1  <0>         0.0100
      9 H9         -7.9145    1.4743   61.6953 H       1  <0>         0.1600
     10 C10        -9.8785    2.0378   60.9423 C.3     1  <0>         0.1000
     11 N11        -9.9411    1.4898   59.5673 N.am    1  <0>        -0.6200
     12 C12        -9.9570    2.1722   58.4053 C.2     1  <0>         0.6200
     13 O13        -9.9176    3.3886   58.4133 O.2     1  <0>        -0.5100
     14 C14       -10.0218    1.4494   57.1317 C.2     1  <0>        -0.2800
     15 C15       -11.1488    0.9225   56.5793 C.2     1  <0>        -0.0300
     16 C16       -10.9406    0.2878   55.3685 C.2     1  <0>        -0.1200
     17 C17        -9.6536    0.3066   54.9536 C.2     1  <0>        -0.1900
     18 C18        -9.1620   -0.3177   53.6612 C.3     1  <0>        -0.0500
     19 C19       -10.2271   -1.2901   53.1481 C.3     1  <0>        -0.1200
     20 C20       -11.5843   -0.5807   53.1339 C.3     1  <0>        -0.1200
     21 C21       -12.0590   -0.3735   54.5733 C.3     1  <0>        -0.0600
     22 S22        -8.6594    1.1313   56.0705 S.3     1  <0>         0.2000
     23 C23        -9.9821    0.0214   59.7595 C.3     1  <0>         0.0600
     24 C24        -8.9972   -0.2478   60.9208 C.3     1  <0>         0.0800
     25 H25        -9.3759   -1.0439   61.5619 H       1  <0>         0.1000
     26 O26        -7.7085   -0.5938   60.4092 O.3     1  <0>        -0.5400
     27 H27        -8.6666    2.7518   63.7211 H       1  <0>         0.1100
     28 H28       -10.3533    2.7588   63.1526 H       1  <0>         0.1100
     29 H29        -9.9511    2.0552   64.7374 H       1  <0>         0.1600
     30 H30        -8.1124   -0.7606   63.2781 H       1  <0>         0.1200
     31 H31        -7.5071    0.7559   63.9867 H       1  <0>         0.1300
     32 H32       -10.8683    2.0329   61.3988 H       1  <0>         0.1000
     33 H33        -9.4694    3.0480   60.9305 H       1  <0>         0.1200
     34 H34       -12.1202    0.9935   57.0459 H       1  <0>         0.1500
     35 H35        -8.9919    0.4629   52.9197 H       1  <0>         0.0900
     36 H36        -8.2332   -0.8574   53.8463 H       1  <0>         0.0800
     37 H37        -9.9723   -1.6103   52.1378 H       1  <0>         0.0700
     38 H38       -10.2761   -2.1579   53.8058 H       1  <0>         0.0700
     39 H39       -11.4847    0.3860   52.6400 H       1  <0>         0.0700
     40 H40       -12.3090   -1.1920   52.5962 H       1  <0>         0.0700
     41 H41       -12.3048   -1.3372   55.0193 H       1  <0>         0.0800
     42 H42       -12.9394    0.2691   54.5787 H       1  <0>         0.0800
     43 H43       -10.9880   -0.2984   60.0313 H       1  <0>         0.1000
     44 H44        -9.6511   -0.4897   58.8554 H       1  <0>         0.1000
     45 H45        -7.2857   -1.3296   60.8730 H       1  <0>         0.4000
@<TRIPOS>BOND
     1     1     2    1
     2     1    27    1
     3     1    28    1
     4     1    29    1
     5     2     3    1
     6     2     4    1
     7     2     8    1
     8     4     5    1
     9     4    30    1
    10     4    31    1
    11     5     6   ar
    12     5     7   ar
    13     8     9    1
    14     8    24    1
    15     8    10    1
    16    10    11    1
    17    10    32    1
    18    10    33    1
    19    11    12   am
    20    11    23    1
    21    12    13    2
    22    12    14    1
    23    14    22    1
    24    14    15    2
    25    15    16    1
    26    15    34    1
    27    16    21    1
    28    16    17    2
    29    17    18    1
    30    17    22    1
    31    18    19    1
    32    18    35    1
    33    18    36    1
    34    19    20    1
    35    19    37    1
    36    19    38    1
    37    20    21    1
    38    20    39    1
    39    20    40    1
    40    21    41    1
    41    21    42    1
    42    23    24    1
    43    23    43    1
    44    23    44    1
    45    24    25    1
    46    24    26    1
    47    26    45    1
@<TRIPOS>SUBSTRUCTURE
     1 <0>         1 TEMP              0 ****  ****    0 ROOT


##########                                Name:    ZINC001312809190
##########                DOCK_Rotatable_Bonds:                   6
##########                         Heavy_Atoms:                  29
##########                    Molecular_Weight:             395.501
##########                DOCK_Rotatable_Bonds:                   6
##########                       Formal_Charge:           0.0199995
##########                     HBond_Acceptors:                   6
##########                        HBond_Donors:                   1
##########                         Heavy_Atoms:                  29
##########                          Grid_Score:          -29.239325
##########                     Grid_vdw_energy:          -28.994972
##########                      Grid_es_energy:           -0.244353
##########           Internal_energy_repulsive:           31.188309

@<TRIPOS>MOLECULE
ZINC001312809190
 58 61 1 0 0
SMALL
USER_CHARGES


@<TRIPOS>ATOM
      1 C1         -1.9079    4.4950   53.3009 C.3     1  ZINC001312809190    0.0300
      2 O2         -3.0547    3.6427   53.2783 O.3     1  ZINC001312809190   -0.3200
      3 C3         -4.1379    4.0844   52.5866 C.ar    1  ZINC001312809190    0.1300
      4 C4         -4.1202    5.3386   51.9945 C.ar    1  ZINC001312809190   -0.2100
      5 C5         -5.2225    5.7851   51.2915 C.ar    1  ZINC001312809190   -0.0800
      6 C6         -6.3429    4.9832   51.1783 C.ar    1  ZINC001312809190   -0.1300
      7 C7         -6.3633    3.7325   51.7681 C.ar    1  ZINC001312809190   -0.0500
      8 C8         -7.5865    2.8611   51.6431 C.3     1  ZINC001312809190    0.1200
      9 H9         -7.5771    2.3583   50.6760 H       1  ZINC001312809190    0.0500
     10 C10        -8.8430    3.7267   51.7556 C.3     1  ZINC001312809190   -0.1400
     11 N11        -7.5850    1.8581   52.7165 N.3     1  ZINC001312809190   -0.5300
     12 C12        -8.4198    0.7035   52.3592 C.3     1  ZINC001312809190    0.0300
     13 C13        -8.2491   -0.3927   53.4162 C.3     1  ZINC001312809190    0.1400
     14 N14        -8.5236    0.1874   54.7396 N.am    1  ZINC001312809190   -0.6300
     15 C15        -9.3922   -0.4004   55.5859 C.2     1  ZINC001312809190    0.7100
     16 O16        -9.9608   -1.4243   55.2592 O.2     1  ZINC001312809190   -0.5800
     17 N17        -9.6305    0.1466   56.7944 N.am    1  ZINC001312809190   -0.7300
     18 C18       -10.5746   -0.4924   57.7143 C.3     1  ZINC001312809190    0.1800
     19 H19       -10.7628   -1.5252   57.4211 H       1  ZINC001312809190    0.1200
     20 C20       -10.0737   -0.4175   59.1437 C.ar    1  ZINC001312809190   -0.1900
     21 C21        -8.8439   -0.6750   59.7070 C.ar    1  ZINC001312809190   -0.0500
     22 C22        -8.6599   -0.5136   61.0692 C.ar    1  ZINC001312809190   -0.1500
     23 C23        -9.7138   -0.0939   61.8592 C.ar    1  ZINC001312809190   -0.0800
     24 C24       -10.9478    0.1612   61.2973 C.ar    1  ZINC001312809190   -0.1400
     25 C25       -11.1422   -0.0019   59.9282 C.ar    1  ZINC001312809190    0.1100
     26 O26       -12.2651    0.1734   59.1787 O.3     1  ZINC001312809190   -0.2900
     27 C27       -11.8957    0.3087   57.7952 C.3     1  ZINC001312809190    0.0800
     28 H28       -11.7285    1.3553   57.5407 H       1  ZINC001312809190    0.0900
     29 C29       -12.9635   -0.3040   56.8868 C.3     1  ZINC001312809190   -0.1500
     30 C30        -7.8246    1.4259   55.1150 C.3     1  ZINC001312809190    0.1200
     31 C31        -8.0121    2.4505   53.9911 C.3     1  ZINC001312809190    0.0400
     32 C32        -5.2615    3.2791   52.4667 C.ar    1  ZINC001312809190   -0.1500
     33 H33        -1.1171    4.0246   53.8854 H       1  ZINC001312809190    0.1000
     34 H34        -1.5575    4.6599   52.2820 H       1  ZINC001312809190    0.0600
     35 H35        -2.1742    5.4505   53.7527 H       1  ZINC001312809190    0.0600
     36 H36        -3.2454    5.9658   52.0833 H       1  ZINC001312809190    0.1300
     37 H37        -5.2092    6.7616   50.8303 H       1  ZINC001312809190    0.1300
     38 H38        -7.2038    5.3341   50.6286 H       1  ZINC001312809190    0.1300
     39 H39        -8.8525    4.2296   52.7228 H       1  ZINC001312809190    0.0700
     40 H40        -8.8442    4.4709   50.9593 H       1  ZINC001312809190    0.0600
     41 H41        -9.7277    3.0964   51.6653 H       1  ZINC001312809190    0.0600
     42 H42        -9.4653    1.0094   52.3180 H       1  ZINC001312809190    0.0400
     43 H43        -8.1138    0.3208   51.3855 H       1  ZINC001312809190    0.1000
     44 H44        -8.9502   -1.2037   53.2193 H       1  ZINC001312809190    0.1000
     45 H45        -7.2279   -0.7730   53.3877 H       1  ZINC001312809190    0.0700
     46 H46        -9.1767    0.9634   57.0551 H       1  ZINC001312809190    0.4000
     47 H47        -8.0234   -1.0030   59.0862 H       1  ZINC001312809190    0.1200
     48 H48        -7.6964   -0.7152   61.5134 H       1  ZINC001312809190    0.1300
     49 H49        -9.5706    0.0346   62.9219 H       1  ZINC001312809190    0.1300
     50 H50       -11.7660    0.4883   61.9218 H       1  ZINC001312809190    0.1300
     51 H51       -13.9076    0.2219   57.0298 H       1  ZINC001312809190    0.0800
     52 H52       -12.6511   -0.2133   55.8465 H       1  ZINC001312809190    0.0800
     53 H53       -13.0928   -1.3570   57.1369 H       1  ZINC001312809190    0.0700
     54 H54        -8.2452    1.8173   56.0412 H       1  ZINC001312809190    0.0800
     55 H55        -6.7627    1.2205   55.2498 H       1  ZINC001312809190    0.0800
     56 H56        -7.4104    3.3348   54.2010 H       1  ZINC001312809190    0.0900
     57 H57        -9.0632    2.7320   53.9271 H       1  ZINC001312809190    0.0400
     58 H58        -5.2778    2.3022   52.9269 H       1  ZINC001312809190    0.1300
@<TRIPOS>BOND
     1     1     2    1
     2     1    33    1
     3     1    34    1
     4     1    35    1
     5     2     3    1
     6     3    32   ar
     7     3     4   ar
     8     4     5   ar
     9     4    36    1
    10     5     6   ar
    11     5    37    1
    12     6     7   ar
    13     6    38    1
    14     7     8    1
    15     7    32   ar
    16     8     9    1
    17     8    10    1
    18     8    11    1
    19    10    39    1
    20    10    40    1
    21    10    41    1
    22    11    31    1
    23    11    12    1
    24    12    13    1
    25    12    42    1
    26    12    43    1
    27    13    14    1
    28    13    44    1
    29    13    45    1
    30    14    15   am
    31    14    30    1
    32    15    16    2
    33    15    17   am
    34    17    18    1
    35    17    46    1
    36    18    19    1
    37    18    27    1
    38    18    20    1
    39    20    25   ar
    40    20    21   ar
    41    21    22   ar
    42    21    47    1
    43    22    23   ar
    44    22    48    1
    45    23    24   ar
    46    23    49    1
    47    24    25   ar
    48    24    50    1
    49    25    26    1
    50    26    27    1
    51    27    28    1
    52    27    29    1
    53    29    51    1
    54    29    52    1
    55    29    53    1
    56    30    31    1
    57    30    54    1
    58    30    55    1
    59    31    56    1
    60    31    57    1
    61    32    58    1
@<TRIPOS>SUBSTRUCTURE
     1 ZINC001312809190        1 TEMP              0 ****  ****    0 ROOT


##########                                Name:    ZINC001105793963
##########                DOCK_Rotatable_Bonds:                   9
##########                         Heavy_Atoms:                  24
##########                    Molecular_Weight:             337.422
##########                DOCK_Rotatable_Bonds:                   9
##########                       Formal_Charge:          -0.0100003
##########                     HBond_Acceptors:                   8
##########                        HBond_Donors:                   2
##########                         Heavy_Atoms:                  24
##########                          Grid_Score:          -29.225019
##########                     Grid_vdw_energy:          -28.285902
##########                      Grid_es_energy:           -0.939118
##########           Internal_energy_repulsive:            8.995872

@<TRIPOS>MOLECULE
ZINC001105793963
 51 52 1 0 0
SMALL
USER_CHARGES


@<TRIPOS>ATOM
      1 C1        -12.7172    3.2090   66.0409 C.3     1  ZINC001105793963   -0.1500
      2 C2        -12.6125    1.6829   66.0726 C.3     1  ZINC001105793963   -0.0300
      3 C3        -11.1719    1.2746   65.9017 C.2     1  ZINC001105793963    0.1800
      4 N4        -10.5567    1.0377   64.7682 N.2     1  ZINC001105793963   -0.4800
      5 C5         -9.2960    0.7088   65.1025 C.2     1  ZINC001105793963    0.1700
      6 C6         -8.1863    0.3464   64.1496 C.3     1  ZINC001105793963    0.1500
      7 N7         -8.7627   -0.1264   62.8838 N.3     1  ZINC001105793963   -0.6900
      8 C8         -8.8883    0.9742   61.9189 C.3     1  ZINC001105793963    0.0700
      9 C9         -8.7255    0.4286   60.4989 C.3     1  ZINC001105793963   -0.1000
     10 H10        -7.9082   -0.2917   60.4619 H       1  ZINC001105793963    0.1000
     11 C11        -8.4688    1.5831   59.5064 C.3     1  ZINC001105793963    0.1100
     12 N12        -9.2021    1.1919   58.2801 N.am    1  ZINC001105793963   -0.6200
     13 C13        -8.8117    1.3445   56.9992 C.2     1  ZINC001105793963    0.5300
     14 O14        -7.7407    1.8554   56.7485 O.2     1  ZINC001105793963   -0.5300
     15 C15        -9.7059    0.8802   55.8785 C.3     1  ZINC001105793963    0.1300
     16 H16       -10.1620   -0.0722   56.1484 H       1  ZINC001105793963    0.1100
     17 C17       -10.8018    1.9201   55.6364 C.3     1  ZINC001105793963   -0.1600
     18 N18        -8.9128    0.7134   54.6581 N.am    1  ZINC001105793963   -0.7200
     19 C19        -9.0442   -0.4041   53.9164 C.2     1  ZINC001105793963    0.5200
     20 C20        -8.2297   -0.5750   52.6601 C.3     1  ZINC001105793963   -0.1700
     21 O21        -9.8180   -1.2725   54.2601 O.2     1  ZINC001105793963   -0.5500
     22 C22       -10.4621    0.5948   58.7811 C.3     1  ZINC001105793963    0.1000
     23 C23       -10.0388   -0.2255   60.0217 C.3     1  ZINC001105793963   -0.1000
     24 H24       -10.8000   -0.1572   60.7988 H       1  ZINC001105793963    0.0900
     25 C25        -9.8021   -1.6875   59.6372 C.3     1  ZINC001105793963   -0.1500
     26 N26        -9.2106    0.7615   66.3981 N.2     1  ZINC001105793963   -0.3700
     27 O27       -10.2759    1.0903   66.8760 O.3     1  ZINC001105793963    0.0800
     28 H28       -12.1216    3.6310   66.8504 H       1  ZINC001105793963    0.0600
     29 H29       -12.3456    3.5789   65.0853 H       1  ZINC001105793963    0.0600
     30 H30       -13.7592    3.5043   66.1644 H       1  ZINC001105793963    0.0800
     31 H31       -12.9841    1.3130   67.0282 H       1  ZINC001105793963    0.1100
     32 H32       -13.2081    1.2609   65.2631 H       1  ZINC001105793963    0.1000
     33 H33        -7.5675    1.2238   63.9618 H       1  ZINC001105793963    0.1000
     34 H34        -7.5746   -0.4426   64.5874 H       1  ZINC001105793963    0.0700
     35 H35        -8.2184   -0.8840   62.4992 H       1  ZINC001105793963    0.3500
     36 H36        -9.8703    1.4361   62.0204 H       1  ZINC001105793963    0.0800
     37 H37        -8.1153    1.7178   62.1133 H       1  ZINC001105793963    0.0400
     38 H38        -8.8625    2.5192   59.9024 H       1  ZINC001105793963    0.0700
     39 H39        -7.4028    1.6757   59.2986 H       1  ZINC001105793963    0.0900
     40 H40       -11.4486    1.5843   54.8257 H       1  ZINC001105793963    0.0800
     41 H41       -11.3919    2.0442   56.5444 H       1  ZINC001105793963    0.0800
     42 H42       -10.3457    2.8726   55.3665 H       1  ZINC001105793963    0.0600
     43 H43        -8.2930    1.4074   54.3838 H       1  ZINC001105793963    0.4100
     44 H44        -7.5969    0.3007   52.5155 H       1  ZINC001105793963    0.0800
     45 H45        -7.6051   -1.4637   52.7500 H       1  ZINC001105793963    0.1000
     46 H46        -8.8980   -0.6852   51.8061 H       1  ZINC001105793963    0.1000
     47 H47       -11.1670    1.3766   59.0638 H       1  ZINC001105793963    0.0800
     48 H48       -10.8998   -0.0581   58.0261 H       1  ZINC001105793963    0.0900
     49 H49        -9.0304   -1.7408   58.8693 H       1  ZINC001105793963    0.0600
     50 H50        -9.4799   -2.2465   60.5157 H       1  ZINC001105793963    0.0600
     51 H51       -10.7274   -2.1164   59.2528 H       1  ZINC001105793963    0.0600
@<TRIPOS>BOND
     1     1     2    1
     2     1    28    1
     3     1    29    1
     4     1    30    1
     5     2     3    1
     6     2    31    1
     7     2    32    1
     8     3    27    1
     9     3     4    2
    10     4     5    1
    11     5     6    1
    12     5    26    2
    13     6     7    1
    14     6    33    1
    15     6    34    1
    16     7     8    1
    17     7    35    1
    18     8     9    1
    19     8    36    1
    20     8    37    1
    21     9    10    1
    22     9    23    1
    23     9    11    1
    24    11    12    1
    25    11    38    1
    26    11    39    1
    27    12    13   am
    28    12    22    1
    29    13    14    2
    30    13    15    1
    31    15    16    1
    32    15    17    1
    33    15    18    1
    34    17    40    1
    35    17    41    1
    36    17    42    1
    37    18    19   am
    38    18    43    1
    39    19    20    1
    40    19    21    2
    41    20    44    1
    42    20    45    1
    43    20    46    1
    44    22    23    1
    45    22    47    1
    46    22    48    1
    47    23    24    1
    48    23    25    1
    49    25    49    1
    50    25    50    1
    51    25    51    1
    52    26    27    1
@<TRIPOS>SUBSTRUCTURE
     1 ZINC001105793963        1 TEMP              0 ****  ****    0 ROOT


##########                                Name:    ZINC000646817380
##########                DOCK_Rotatable_Bonds:                   6
##########                         Heavy_Atoms:                  25
##########                    Molecular_Weight:             347.457
##########                DOCK_Rotatable_Bonds:                   6
##########                       Formal_Charge:           0.0199991
##########                     HBond_Acceptors:                   6
##########                        HBond_Donors:                   1
##########                         Heavy_Atoms:                  25
##########                          Grid_Score:          -29.218964
##########                     Grid_vdw_energy:          -28.597593
##########                      Grid_es_energy:           -0.621369
##########           Internal_energy_repulsive:           55.333027

@<TRIPOS>MOLECULE
ZINC000646817380
 54 56 1 0 0
SMALL
USER_CHARGES


@<TRIPOS>ATOM
      1 C1         -8.7988    3.0839   51.6058 C.3     1  ZINC000646817380   -0.1500
      2 C2         -7.8679    1.9283   51.9786 C.3     1  ZINC000646817380   -0.0100
      3 C3         -6.7591    2.4430   52.8986 C.3     1  ZINC000646817380   -0.1500
      4 C4         -8.6552    0.8585   52.6904 C.2     1  ZINC000646817380   -0.0100
      5 C5         -8.5060    0.4658   53.9759 C.2     1  ZINC000646817380   -0.2200
      6 C6         -9.4798   -0.5558   54.1372 C.2     1  ZINC000646817380    0.2400
      7 N7         -9.7370   -1.2916   55.2924 N.am    1  ZINC000646817380   -0.6100
      8 C8        -11.0036   -1.6236   55.6119 C.2     1  ZINC000646817380    0.5200
      9 O9        -11.9202   -1.2803   54.8945 O.2     1  ZINC000646817380   -0.4900
     10 C10       -11.2792   -2.4138   56.8492 C.2     1  ZINC000646817380    0.5300
     11 O11       -11.8649   -3.4741   56.7741 O.2     1  ZINC000646817380   -0.5100
     12 N12       -10.8775   -1.9494   58.0489 N.am    1  ZINC000646817380   -0.5800
     13 C13       -11.0822   -2.6218   59.3402 C.3     1  ZINC000646817380    0.1000
     14 C14       -10.4814   -1.7108   60.4315 C.3     1  ZINC000646817380   -0.1300
     15 C15       -10.4761   -0.3147   59.7546 C.3     1  ZINC000646817380   -0.1000
     16 H16       -11.4526    0.1627   59.8360 H       1  ZINC000646817380    0.1000
     17 C17        -9.3820    0.5769   60.3451 C.3     1  ZINC000646817380   -0.0700
     18 H18        -8.5507   -0.0348   60.6954 H       1  ZINC000646817380    0.0800
     19 C19        -8.8884    1.5814   59.2833 C.3     1  ZINC000646817380   -0.1300
     20 C20        -8.6242    2.8810   60.0835 C.3     1  ZINC000646817380   -0.1300
     21 C21        -9.7834    2.8914   61.1108 C.3     1  ZINC000646817380   -0.1200
     22 C22        -9.9507    1.4090   61.5079 C.3     1  ZINC000646817380   -0.0700
     23 C23       -11.4323    1.0844   61.7091 C.3     1  ZINC000646817380   -0.1600
     24 C24        -9.1710    1.1192   62.7920 C.3     1  ZINC000646817380   -0.1400
     25 C25       -10.1545   -0.6861   58.2830 C.3     1  ZINC000646817380    0.0900
     26 N26       -10.0865   -0.6669   52.9844 N.2     1  ZINC000646817380   -0.3800
     27 O27        -9.6442    0.1145   52.1745 O.3     1  ZINC000646817380    0.1100
     28 H28        -8.2293    3.8576   51.0910 H       1  ZINC000646817380    0.0700
     29 H29        -9.5887    2.7172   50.9504 H       1  ZINC000646817380    0.0600
     30 H30        -9.2416    3.5001   52.5108 H       1  ZINC000646817380    0.0600
     31 H31        -7.4251    1.5121   51.0737 H       1  ZINC000646817380    0.1100
     32 H32        -7.2019    2.8591   53.8036 H       1  ZINC000646817380    0.0600
     33 H33        -6.0959    1.6198   53.1641 H       1  ZINC000646817380    0.0600
     34 H34        -6.1896    3.2168   52.3837 H       1  ZINC000646817380    0.0700
     35 H35        -7.8081    0.8415   54.7096 H       1  ZINC000646817380    0.1900
     36 H36        -9.0045   -1.5650   55.8665 H       1  ZINC000646817380    0.4300
     37 H37       -12.1480   -2.7624   59.5202 H       1  ZINC000646817380    0.0800
     38 H38       -10.5737   -3.5858   59.3409 H       1  ZINC000646817380    0.0800
     39 H39       -11.1125   -1.7060   61.3203 H       1  ZINC000646817380    0.0900
     40 H40        -9.4669   -2.0232   60.6792 H       1  ZINC000646817380    0.0800
     41 H41        -7.9685    1.2251   58.8197 H       1  ZINC000646817380    0.0700
     42 H42        -9.6574    1.7476   58.5288 H       1  ZINC000646817380    0.0800
     43 H43        -7.6599    2.8337   60.5895 H       1  ZINC000646817380    0.0700
     44 H44        -8.6775    3.7533   59.4320 H       1  ZINC000646817380    0.0700
     45 H45        -9.5165    3.4912   61.9810 H       1  ZINC000646817380    0.0700
     46 H46       -10.6969    3.2692   60.6516 H       1  ZINC000646817380    0.0700
     47 H47       -12.0242    1.6087   60.9588 H       1  ZINC000646817380    0.0700
     48 H48       -11.5858    0.0101   61.6073 H       1  ZINC000646817380    0.0600
     49 H49       -11.7422    1.4031   62.7043 H       1  ZINC000646817380    0.0500
     50 H50        -9.5655    1.7317   63.6028 H       1  ZINC000646817380    0.0600
     51 H51        -9.2743    0.0652   63.0497 H       1  ZINC000646817380    0.0500
     52 H52        -8.1178    1.3542   62.6385 H       1  ZINC000646817380    0.0600
     53 H53        -9.0815   -0.8273   58.1533 H       1  ZINC000646817380    0.0900
     54 H54       -10.5205    0.0873   57.6079 H       1  ZINC000646817380    0.1000
@<TRIPOS>BOND
     1     1     2    1
     2     1    28    1
     3     1    29    1
     4     1    30    1
     5     2     3    1
     6     2     4    1
     7     2    31    1
     8     3    32    1
     9     3    33    1
    10     3    34    1
    11     4    27    1
    12     4     5    2
    13     5     6    1
    14     5    35    1
    15     6     7    1
    16     6    26    2
    17     7     8   am
    18     7    36    1
    19     8     9    2
    20     8    10    1
    21    10    11    2
    22    10    12   am
    23    12    25    1
    24    12    13    1
    25    13    14    1
    26    13    37    1
    27    13    38    1
    28    14    15    1
    29    14    39    1
    30    14    40    1
    31    15    16    1
    32    15    17    1
    33    15    25    1
    34    17    18    1
    35    17    22    1
    36    17    19    1
    37    19    20    1
    38    19    41    1
    39    19    42    1
    40    20    21    1
    41    20    43    1
    42    20    44    1
    43    21    22    1
    44    21    45    1
    45    21    46    1
    46    22    23    1
    47    22    24    1
    48    23    47    1
    49    23    48    1
    50    23    49    1
    51    24    50    1
    52    24    51    1
    53    24    52    1
    54    25    53    1
    55    25    54    1
    56    26    27    1
@<TRIPOS>SUBSTRUCTURE
     1 ZINC000646817380        1 TEMP              0 ****  ****    0 ROOT


##########                                Name:    ZINC000462219577
##########                DOCK_Rotatable_Bonds:                   8
##########                         Heavy_Atoms:                  31
##########                    Molecular_Weight:             418.539
##########                DOCK_Rotatable_Bonds:                   8
##########                       Formal_Charge:         -0.00999914
##########                     HBond_Acceptors:                   6
##########                        HBond_Donors:                   2
##########                         Heavy_Atoms:                  31
##########                          Grid_Score:          -29.211819
##########                     Grid_vdw_energy:          -28.562189
##########                      Grid_es_energy:           -0.649630
##########           Internal_energy_repulsive:          144.482758

@<TRIPOS>MOLECULE
ZINC000462219577
 61 64 1 0 0
SMALL
USER_CHARGES


@<TRIPOS>ATOM
      1 C1        -10.2235   -1.0015   52.1178 C.3     1  ZINC000462219577   -0.0700
      2 C2         -9.6974    0.1964   52.8657 C.2     1  ZINC000462219577    0.0800
      3 N3        -10.1466    1.4215   52.7650 N.2     1  ZINC000462219577   -0.2900
      4 N4         -9.3933    2.2359   53.6203 N.pl3   1  ZINC000462219577   -0.3200
      5 C5         -9.5601    3.6155   53.8048 C.ar    1  ZINC000462219577    0.1500
      6 C6         -8.7352    4.3045   54.6836 C.ar    1  ZINC000462219577   -0.1100
      7 C7         -8.9020    5.6638   54.8632 C.ar    1  ZINC000462219577   -0.1000
      8 C8         -9.8897    6.3383   54.1691 C.ar    1  ZINC000462219577   -0.1200
      9 C9        -10.7131    5.6547   53.2935 C.ar    1  ZINC000462219577   -0.1000
     10 C10       -10.5468    4.2966   53.1047 C.ar    1  ZINC000462219577   -0.1300
     11 C11        -8.4771    1.4555   54.2368 C.2     1  ZINC000462219577    0.0900
     12 C12        -7.4535    1.9128   55.2438 C.3     1  ZINC000462219577   -0.0800
     13 C13        -8.1539    2.2716   56.5560 C.3     1  ZINC000462219577    0.1700
     14 H14        -8.9868    2.9441   56.3511 H       1  ZINC000462219577    0.1000
     15 C15        -7.1599    2.9613   57.4926 C.3     1  ZINC000462219577   -0.1600
     16 N16        -8.6566    1.0508   57.1908 N.am    1  ZINC000462219577   -0.7400
     17 C17        -9.6995    1.1143   58.0422 C.2     1  ZINC000462219577    0.7100
     18 O18       -10.2240    2.1846   58.2822 O.2     1  ZINC000462219577   -0.5800
     19 N19       -10.1610   -0.0087   58.6275 N.am    1  ZINC000462219577   -0.7400
     20 C20       -11.2957    0.0602   59.5515 C.3     1  ZINC000462219577    0.1600
     21 H21       -12.0383    0.7586   59.1657 H       1  ZINC000462219577    0.1000
     22 C22       -11.9248   -1.3291   59.6949 C.3     1  ZINC000462219577   -0.1700
     23 C23       -10.8981   -2.2847   60.3086 C.3     1  ZINC000462219577    0.0700
     24 O24       -10.4651   -1.7706   61.5696 O.3     1  ZINC000462219577   -0.3700
     25 C25        -9.8264   -0.4946   61.4913 C.3     1  ZINC000462219577    0.1400
     26 H26        -8.9563   -0.5631   60.8384 H       1  ZINC000462219577    0.0600
     27 C27        -9.3889   -0.0662   62.8684 C.ar    1  ZINC000462219577   -0.0900
     28 C28       -10.3234    0.3865   63.7808 C.ar    1  ZINC000462219577   -0.0900
     29 C29        -9.9220    0.7794   65.0439 C.ar    1  ZINC000462219577   -0.1200
     30 C30        -8.5863    0.7194   65.3947 C.ar    1  ZINC000462219577   -0.1200
     31 C31        -7.6519    0.2658   64.4824 C.ar    1  ZINC000462219577   -0.1200
     32 C32        -8.0538   -0.1312   63.2208 C.ar    1  ZINC000462219577   -0.1100
     33 C33       -10.8104    0.5350   60.9246 C.3     1  ZINC000462219577   -0.1500
     34 C34        -8.6486    0.1892   53.7917 C.2     1  ZINC000462219577   -0.2600
     35 H35       -11.0208   -1.4691   52.6954 H       1  ZINC000462219577    0.0800
     36 H36       -10.6137   -0.6836   51.1509 H       1  ZINC000462219577    0.0700
     37 H37        -9.4165   -1.7183   51.9659 H       1  ZINC000462219577    0.0800
     38 H38        -7.9641    3.7782   55.2264 H       1  ZINC000462219577    0.1300
     39 H39        -8.2607    6.2004   55.5466 H       1  ZINC000462219577    0.1300
     40 H40       -10.0185    7.4011   54.3115 H       1  ZINC000462219577    0.1300
     41 H41       -11.4841    6.1840   52.7533 H       1  ZINC000462219577    0.1300
     42 H42       -11.1903    3.7632   52.4206 H       1  ZINC000462219577    0.1300
     43 H43        -6.7360    1.1119   55.4221 H       1  ZINC000462219577    0.0900
     44 H44        -6.9317    2.7891   54.8592 H       1  ZINC000462219577    0.1100
     45 H45        -6.3269    2.2887   57.6974 H       1  ZINC000462219577    0.0600
     46 H46        -6.7859    3.8696   57.0203 H       1  ZINC000462219577    0.0700
     47 H47        -7.6588    3.2168   58.4274 H       1  ZINC000462219577    0.0700
     48 H48        -8.2389    0.1967   56.9984 H       1  ZINC000462219577    0.3900
     49 H49        -9.7418   -0.8624   58.4368 H       1  ZINC000462219577    0.3900
     50 H50       -12.7988   -1.2681   60.3434 H       1  ZINC000462219577    0.0800
     51 H51       -12.2234   -1.6969   58.7132 H       1  ZINC000462219577    0.0800
     52 H52       -11.3539   -3.2643   60.4526 H       1  ZINC000462219577    0.1000
     53 H53       -10.0420   -2.3766   59.6402 H       1  ZINC000462219577    0.0500
     54 H54       -11.3670    0.4334   63.5069 H       1  ZINC000462219577    0.1300
     55 H55       -10.6521    1.1337   65.7567 H       1  ZINC000462219577    0.1200
     56 H56        -8.2727    1.0269   66.3812 H       1  ZINC000462219577    0.1200
     57 H57        -6.6083    0.2192   64.7564 H       1  ZINC000462219577    0.1200
     58 H58        -7.3238   -0.4855   62.5080 H       1  ZINC000462219577    0.1200
     59 H59       -10.3110    1.4986   60.8230 H       1  ZINC000462219577    0.0800
     60 H60       -11.6619    0.6341   61.5978 H       1  ZINC000462219577    0.0900
     61 H61        -8.0727   -0.6735   54.0928 H       1  ZINC000462219577    0.1500
@<TRIPOS>BOND
     1     1     2    1
     2     1    35    1
     3     1    36    1
     4     1    37    1
     5     2    34    1
     6     2     3    2
     7     3     4    1
     8     4     5    1
     9     4    11    1
    10     5    10   ar
    11     5     6   ar
    12     6     7   ar
    13     6    38    1
    14     7     8   ar
    15     7    39    1
    16     8     9   ar
    17     8    40    1
    18     9    10   ar
    19     9    41    1
    20    10    42    1
    21    11    12    1
    22    11    34    2
    23    12    13    1
    24    12    43    1
    25    12    44    1
    26    13    14    1
    27    13    15    1
    28    13    16    1
    29    15    45    1
    30    15    46    1
    31    15    47    1
    32    16    17   am
    33    16    48    1
    34    17    18    2
    35    17    19   am
    36    19    20    1
    37    19    49    1
    38    20    21    1
    39    20    33    1
    40    20    22    1
    41    22    23    1
    42    22    50    1
    43    22    51    1
    44    23    24    1
    45    23    52    1
    46    23    53    1
    47    24    25    1
    48    25    26    1
    49    25    27    1
    50    25    33    1
    51    27    32   ar
    52    27    28   ar
    53    28    29   ar
    54    28    54    1
    55    29    30   ar
    56    29    55    1
    57    30    31   ar
    58    30    56    1
    59    31    32   ar
    60    31    57    1
    61    32    58    1
    62    33    59    1
    63    33    60    1
    64    34    61    1
@<TRIPOS>SUBSTRUCTURE
     1 ZINC000462219577        1 TEMP              0 ****  ****    0 ROOT


##########                                Name:    ZINC000541568816
##########                DOCK_Rotatable_Bonds:                   8
##########                         Heavy_Atoms:                  25
##########                    Molecular_Weight:             411.339
##########                DOCK_Rotatable_Bonds:                   8
##########                       Formal_Charge:          -0.0100007
##########                     HBond_Acceptors:                   5
##########                        HBond_Donors:                   1
##########                         Heavy_Atoms:                  25
##########                          Grid_Score:          -29.197996
##########                     Grid_vdw_energy:          -28.890821
##########                      Grid_es_energy:           -0.307175
##########           Internal_energy_repulsive:           41.905178

@<TRIPOS>MOLECULE
ZINC000541568816
 52 54 1 0 0
SMALL
USER_CHARGES


@<TRIPOS>ATOM
      1 C1         -7.0020    3.4288   58.7532 C.3     1  ZINC000541568816   -0.1500
      2 C2         -8.3856    2.9203   59.1632 C.3     1  ZINC000541568816    0.0600
      3 O3         -8.2628    2.0791   60.3118 O.3     1  ZINC000541568816   -0.3700
      4 C4         -9.3984    1.2434   60.5443 C.3     1  ZINC000541568816    0.0700
      5 H5         -9.4123    0.3603   59.9056 H       1  ZINC000541568816    0.0900
      6 C6        -10.7333    2.0087   60.5683 C.3     1  ZINC000541568816   -0.1700
      7 C7        -11.1397    1.1105   61.7499 C.3     1  ZINC000541568816    0.1500
      8 H8        -11.6706    1.6414   62.5401 H       1  ZINC000541568816    0.1100
      9 N9        -11.8117   -0.1263   61.3437 N.am    1  ZINC000541568816   -0.7200
     10 C10       -13.1459   -0.1369   61.1531 C.2     1  ZINC000541568816    0.7100
     11 O11       -13.7915    0.8803   61.3167 O.2     1  ZINC000541568816   -0.5800
     12 N12       -13.7643   -1.2751   60.7810 N.am    1  ZINC000541568816   -0.6300
     13 C13       -15.2148   -1.2872   60.5754 C.3     1  ZINC000541568816    0.1000
     14 C14       -15.5309   -0.8433   59.1457 C.3     1  ZINC000541568816   -0.1800
     15 C15       -12.9860   -2.5003   60.5821 C.3     1  ZINC000541568816    0.1700
     16 C16       -12.4438   -2.5283   59.1764 C.ar    1  ZINC000541568816   -0.0700
     17 C17       -11.2056   -1.9791   58.9022 C.ar    1  ZINC000541568816   -0.1000
     18 C18       -10.7080   -2.0047   57.6125 C.ar    1  ZINC000541568816   -0.1000
     19 C19       -11.4484   -2.5800   56.5969 C.ar    1  ZINC000541568816   -0.1200
     20 C20       -12.6870   -3.1295   56.8701 C.ar    1  ZINC000541568816   -0.0900
     21 C21       -13.1829   -3.1087   58.1611 C.ar    1  ZINC000541568816   -0.0900
     22 Br22      -14.8773   -3.8604   58.5356 Br      1  ZINC000541568816   -0.0500
     23 C23        -9.6410    0.9344   62.0250 C.3     1  ZINC000541568816    0.0800
     24 C24        -9.0434    1.9639   62.9999 C.3     1  ZINC000541568816   -0.1200
     25 C25        -8.7697    1.0966   64.2603 C.3     1  ZINC000541568816   -0.1600
     26 C26        -8.4000   -0.2613   63.6108 C.3     1  ZINC000541568816    0.0500
     27 O27        -9.2468   -0.3677   62.4530 O.3     1  ZINC000541568816   -0.3600
     28 H28        -6.5657    3.9971   59.5747 H       1  ZINC000541568816    0.0600
     29 H29        -6.3591    2.5813   58.5159 H       1  ZINC000541568816    0.0600
     30 H30        -7.0957    4.0705   57.8771 H       1  ZINC000541568816    0.0700
     31 H31        -9.0286    3.7679   59.4006 H       1  ZINC000541568816    0.0500
     32 H32        -8.8220    2.3521   58.3417 H       1  ZINC000541568816    0.0500
     33 H33       -10.6286    3.0603   60.8354 H       1  ZINC000541568816    0.1000
     34 H34       -11.3398    1.8564   59.6756 H       1  ZINC000541568816    0.0800
     35 H35       -11.2964   -0.9374   61.2121 H       1  ZINC000541568816    0.4000
     36 H36       -15.5960   -2.2957   60.7354 H       1  ZINC000541568816    0.0900
     37 H37       -15.6874   -0.6038   61.2809 H       1  ZINC000541568816    0.0700
     38 H38       -15.0583   -1.5266   58.4402 H       1  ZINC000541568816    0.0600
     39 H39       -16.6101   -0.8522   58.9927 H       1  ZINC000541568816    0.0700
     40 H40       -15.1496    0.1652   58.9857 H       1  ZINC000541568816    0.0600
     41 H41       -12.1587   -2.5242   61.2913 H       1  ZINC000541568816    0.1000
     42 H42       -13.6266   -3.3676   60.7418 H       1  ZINC000541568816    0.1100
     43 H43       -10.6267   -1.5295   59.6954 H       1  ZINC000541568816    0.1300
     44 H44        -9.7406   -1.5748   57.3984 H       1  ZINC000541568816    0.1300
     45 H45       -11.0593   -2.5997   55.5896 H       1  ZINC000541568816    0.1300
     46 H46       -13.2657   -3.5787   56.0765 H       1  ZINC000541568816    0.1300
     47 H47        -8.1167    2.3808   62.6057 H       1  ZINC000541568816    0.1000
     48 H48        -9.7614    2.7540   63.2196 H       1  ZINC000541568816    0.0900
     49 H49        -7.9360    1.4955   64.8380 H       1  ZINC000541568816    0.0900
     50 H50        -9.6643    1.0063   64.8765 H       1  ZINC000541568816    0.0800
     51 H51        -7.3512   -0.2654   63.3138 H       1  ZINC000541568816    0.0600
     52 H52        -8.6011   -1.0790   64.3030 H       1  ZINC000541568816    0.0900
@<TRIPOS>BOND
     1     1     2    1
     2     1    28    1
     3     1    29    1
     4     1    30    1
     5     2     3    1
     6     2    31    1
     7     2    32    1
     8     3     4    1
     9     4     5    1
    10     4    23    1
    11     4     6    1
    12     6     7    1
    13     6    33    1
    14     6    34    1
    15     7     8    1
    16     7     9    1
    17     7    23    1
    18     9    10   am
    19     9    35    1
    20    10    11    2
    21    10    12   am
    22    12    13    1
    23    12    15    1
    24    13    14    1
    25    13    36    1
    26    13    37    1
    27    14    38    1
    28    14    39    1
    29    14    40    1
    30    15    16    1
    31    15    41    1
    32    15    42    1
    33    16    21   ar
    34    16    17   ar
    35    17    18   ar
    36    17    43    1
    37    18    19   ar
    38    18    44    1
    39    19    20   ar
    40    19    45    1
    41    20    21   ar
    42    20    46    1
    43    21    22    1
    44    23    27    1
    45    23    24    1
    46    24    25    1
    47    24    47    1
    48    24    48    1
    49    25    26    1
    50    25    49    1
    51    25    50    1
    52    26    27    1
    53    26    51    1
    54    26    52    1
@<TRIPOS>SUBSTRUCTURE
     1 ZINC000541568816        1 TEMP              0 ****  ****    0 ROOT


##########                                Name:    ZINC000952280524
##########                DOCK_Rotatable_Bonds:                   9
##########                         Heavy_Atoms:                  25
##########                    Molecular_Weight:             348.486
##########                DOCK_Rotatable_Bonds:                   9
##########                       Formal_Charge:          -0.0100004
##########                     HBond_Acceptors:                   5
##########                        HBond_Donors:                   1
##########                         Heavy_Atoms:                  25
##########                          Grid_Score:          -29.194588
##########                     Grid_vdw_energy:          -28.478508
##########                      Grid_es_energy:           -0.716080
##########           Internal_energy_repulsive:           19.231682

@<TRIPOS>MOLECULE
ZINC000952280524
 57 59 1 0 0
SMALL
USER_CHARGES


@<TRIPOS>ATOM
      1 C1         -9.5112    2.0354   66.8367 C.3     1  ZINC000952280524   -0.1800
      2 C2         -9.3736    0.9855   65.7324 C.3     1  ZINC000952280524    0.1400
      3 C3         -8.7762   -0.2955   66.3180 C.3     1  ZINC000952280524   -0.1900
      4 O4        -10.6614    0.7020   65.1815 O.3     1  ZINC000952280524   -0.5500
      5 C5         -8.4548    1.5201   64.6319 C.3     1  ZINC000952280524   -0.1200
      6 C6         -9.2781    1.8867   63.4241 C.2     1  ZINC000952280524    0.5300
      7 O7         -9.7780    2.9887   63.3427 O.2     1  ZINC000952280524   -0.5100
      8 N8         -9.4588    0.9899   62.4344 N.am    1  ZINC000952280524   -0.6300
      9 C9         -8.9127   -0.3748   62.4043 C.3     1  ZINC000952280524    0.1000
     10 C10        -9.3567   -1.0168   61.0731 C.3     1  ZINC000952280524   -0.1300
     11 C11        -9.6527    0.2138   60.1756 C.3     1  ZINC000952280524   -0.1000
     12 H12        -8.7367    0.6019   59.7301 H       1  ZINC000952280524    0.0900
     13 C13       -10.6813   -0.1295   59.0962 C.3     1  ZINC000952280524   -0.0700
     14 C14       -10.7799    1.0276   58.0995 C.3     1  ZINC000952280524   -0.1300
     15 C15       -11.8354    0.6953   57.0401 C.3     1  ZINC000952280524    0.1100
     16 N16       -11.5022   -0.5995   56.4305 N.am    1  ZINC000952280524   -0.6100
     17 C17       -11.3877   -0.7195   55.0930 C.2     1  ZINC000952280524    0.5500
     18 O18       -11.1115   -1.7967   54.6006 O.2     1  ZINC000952280524   -0.5500
     19 C19       -11.5968    0.4524   54.2288 C.2     1  ZINC000952280524   -0.2200
     20 C20       -10.5694    0.9900   53.5775 C.2     1  ZINC000952280524   -0.0300
     21 C21        -9.1908    0.3997   53.7262 C.3     1  ZINC000952280524   -0.1500
     22 C22        -8.6979   -0.5317   52.6170 C.3     1  ZINC000952280524   -0.1700
     23 C23        -8.1103    0.8744   52.7524 C.3     1  ZINC000952280524   -0.1600
     24 C24       -11.2958   -1.7606   57.3069 C.3     1  ZINC000952280524    0.1000
     25 C25       -10.2463   -1.4007   58.3632 C.3     1  ZINC000952280524   -0.1300
     26 C26       -10.2423    1.2127   61.2056 C.3     1  ZINC000952280524    0.1100
     27 H27        -8.5440    2.1876   67.3158 H       1  ZINC000952280524    0.0700
     28 H28        -9.8541    2.9752   66.4039 H       1  ZINC000952280524    0.0600
     29 H29       -10.2332    1.6914   67.5771 H       1  ZINC000952280524    0.0600
     30 H30        -9.4308   -0.6764   67.1019 H       1  ZINC000952280524    0.0600
     31 H31        -8.6782   -1.0435   65.5312 H       1  ZINC000952280524    0.0800
     32 H32        -7.7939   -0.0793   66.7381 H       1  ZINC000952280524    0.0600
     33 H33       -11.1002    1.4704   64.7916 H       1  ZINC000952280524    0.3700
     34 H34        -7.9290    2.4032   64.9949 H       1  ZINC000952280524    0.1000
     35 H35        -7.7305    0.7527   64.3587 H       1  ZINC000952280524    0.1000
     36 H36        -7.8244   -0.3397   62.4542 H       1  ZINC000952280524    0.0700
     37 H37        -9.3059   -0.9500   63.2426 H       1  ZINC000952280524    0.0700
     38 H38        -8.5535   -1.6193   60.6488 H       1  ZINC000952280524    0.0800
     39 H39       -10.2561   -1.6159   61.2149 H       1  ZINC000952280524    0.0800
     40 H40       -11.6540   -0.2927   59.5602 H       1  ZINC000952280524    0.0800
     41 H41       -11.0670    1.9378   58.6260 H       1  ZINC000952280524    0.0800
     42 H42        -9.8139    1.1754   57.6168 H       1  ZINC000952280524    0.0700
     43 H43       -12.8177    0.6365   57.5088 H       1  ZINC000952280524    0.0700
     44 H44       -11.8399    1.4698   56.2731 H       1  ZINC000952280524    0.0900
     45 H45       -12.5844    0.8762   54.1234 H       1  ZINC000952280524    0.1300
     46 H46       -10.7231    1.8496   52.9420 H       1  ZINC000952280524    0.1300
     47 H47        -8.8839    0.1735   54.7473 H       1  ZINC000952280524    0.1200
     48 H48        -8.0665   -1.3711   52.9083 H       1  ZINC000952280524    0.1000
     49 H49        -9.3706   -0.7175   51.7798 H       1  ZINC000952280524    0.1000
     50 H50        -8.3965    1.6138   52.0044 H       1  ZINC000952280524    0.1000
     51 H51        -7.0924    0.9601   53.1329 H       1  ZINC000952280524    0.1000
     52 H52       -12.2341   -2.0197   57.7973 H       1  ZINC000952280524    0.0700
     53 H53       -10.9442   -2.6064   56.7160 H       1  ZINC000952280524    0.0900
     54 H54        -9.2853   -1.2301   57.8781 H       1  ZINC000952280524    0.0700
     55 H55       -10.1537   -2.2188   59.0775 H       1  ZINC000952280524    0.0800
     56 H56       -11.2974    1.0007   61.3785 H       1  ZINC000952280524    0.0700
     57 H57       -10.1125    2.2374   60.8575 H       1  ZINC000952280524    0.0800
@<TRIPOS>BOND
     1     1     2    1
     2     1    27    1
     3     1    28    1
     4     1    29    1
     5     2     3    1
     6     2     4    1
     7     2     5    1
     8     3    30    1
     9     3    31    1
    10     3    32    1
    11     4    33    1
    12     5     6    1
    13     5    34    1
    14     5    35    1
    15     6     7    2
    16     6     8   am
    17     8    26    1
    18     8     9    1
    19     9    10    1
    20     9    36    1
    21     9    37    1
    22    10    11    1
    23    10    38    1
    24    10    39    1
    25    11    12    1
    26    11    13    1
    27    11    26    1
    28    13    25    1
    29    13    14    1
    30    13    40    1
    31    14    15    1
    32    14    41    1
    33    14    42    1
    34    15    16    1
    35    15    43    1
    36    15    44    1
    37    16    17   am
    38    16    24    1
    39    17    18    2
    40    17    19    1
    41    19    20    2
    42    19    45    1
    43    20    21    1
    44    20    46    1
    45    21    23    1
    46    21    22    1
    47    21    47    1
    48    22    23    1
    49    22    48    1
    50    22    49    1
    51    23    50    1
    52    23    51    1
    53    24    25    1
    54    24    52    1
    55    24    53    1
    56    25    54    1
    57    25    55    1
    58    26    56    1
    59    26    57    1
@<TRIPOS>SUBSTRUCTURE
     1 ZINC000952280524        1 TEMP              0 ****  ****    0 ROOT


##########                                Name:    ZINC000074782190
##########                DOCK_Rotatable_Bonds:                   9
##########                         Heavy_Atoms:                  25
##########                    Molecular_Weight:             341.453
##########                DOCK_Rotatable_Bonds:                   9
##########                       Formal_Charge:          -0.0200006
##########                     HBond_Acceptors:                   5
##########                        HBond_Donors:                   1
##########                         Heavy_Atoms:                  25
##########                          Grid_Score:          -29.190859
##########                     Grid_vdw_energy:          -27.915562
##########                      Grid_es_energy:           -1.275297
##########           Internal_energy_repulsive:           22.803648

@<TRIPOS>MOLECULE
ZINC000074782190
 52 53 1 0 0
SMALL
USER_CHARGES


@<TRIPOS>ATOM
      1 C1         -4.4089    4.5840   56.4894 C.3     1  ZINC000074782190   -0.1100
      2 C2         -3.1168    3.9285   56.9039 C.ar    1  ZINC000074782190   -0.1200
      3 C3         -3.0326    3.2718   58.1161 C.ar    1  ZINC000074782190   -0.0800
      4 C4         -1.8471    2.6705   58.4972 C.ar    1  ZINC000074782190   -0.1500
      5 C5         -0.7437    2.7246   57.6662 C.ar    1  ZINC000074782190   -0.0900
      6 C6         -0.8229    3.3797   56.4524 C.ar    1  ZINC000074782190   -0.2100
      7 C7         -2.0124    3.9792   56.0655 C.ar    1  ZINC000074782190    0.1300
      8 O8         -2.0929    4.6244   54.8720 O.3     1  ZINC000074782190   -0.3000
      9 C9         -2.3193    3.8192   53.7134 C.3     1  ZINC000074782190    0.0700
     10 H10        -2.6443    2.8249   54.0196 H       1  ZINC000074782190    0.0800
     11 C11        -1.0226    3.7068   52.9091 C.3     1  ZINC000074782190   -0.1800
     12 C12        -3.4023    4.4653   52.8471 C.3     1  ZINC000074782190    0.1400
     13 N13        -4.6409    3.6905   52.9552 N.am    1  ZINC000074782190   -0.7500
     14 C14        -5.8290    4.2831   52.7229 C.2     1  ZINC000074782190    0.7100
     15 O15        -5.8728    5.4607   52.4237 O.2     1  ZINC000074782190   -0.5900
     16 N16        -6.9684    3.5702   52.8223 N.am    1  ZINC000074782190   -0.6200
     17 C17        -8.2598    4.2143   52.5698 C.3     1  ZINC000074782190    0.1800
     18 C18        -8.5793    4.1400   51.0990 C.ar    1  ZINC000074782190   -0.1600
     19 C19        -9.8962    4.1081   50.6674 C.ar    1  ZINC000074782190   -0.0500
     20 C20       -10.1427    4.0401   49.3044 C.ar    1  ZINC000074782190   -0.1800
     21 C21        -9.0749    4.0067   48.4279 C.ar    1  ZINC000074782190    0.1000
     22 N22        -7.8344    4.0387   48.8745 N.ar    1  ZINC000074782190   -0.4900
     23 C23        -7.5628    4.1086   50.1627 C.ar    1  ZINC000074782190    0.1100
     24 C24        -6.9157    2.1512   53.1829 C.3     1  ZINC000074782190    0.1300
     25 C25        -7.4750    1.9626   54.5944 C.3     1  ZINC000074782190   -0.1800
     26 C26        -7.7522    1.3414   52.1904 C.3     1  ZINC000074782190   -0.1800
     27 H27        -5.0205    3.8674   55.9413 H       1  ZINC000074782190    0.0700
     28 H28        -4.9477    4.9182   57.3762 H       1  ZINC000074782190    0.0600
     29 H29        -4.1934    5.4408   55.8511 H       1  ZINC000074782190    0.0700
     30 H30        -3.8934    3.2283   58.7670 H       1  ZINC000074782190    0.1300
     31 H31        -1.7831    2.1582   59.4458 H       1  ZINC000074782190    0.1200
     32 H32         0.1813    2.2544   57.9662 H       1  ZINC000074782190    0.1200
     33 H33         0.0396    3.4220   55.8037 H       1  ZINC000074782190    0.1300
     34 H34        -0.6977    4.7011   52.6028 H       1  ZINC000074782190    0.0700
     35 H35        -0.2511    3.2464   53.5263 H       1  ZINC000074782190    0.0700
     36 H36        -1.1953    3.0927   52.0253 H       1  ZINC000074782190    0.0800
     37 H37        -3.5806    5.4849   53.1888 H       1  ZINC000074782190    0.0800
     38 H38        -3.0741    4.4826   51.8078 H       1  ZINC000074782190    0.0900
     39 H39        -4.6060    2.7510   53.1938 H       1  ZINC000074782190    0.4100
     40 H40        -9.0377    3.7032   53.1369 H       1  ZINC000074782190    0.0900
     41 H41        -8.2116    5.2585   52.8788 H       1  ZINC000074782190    0.1000
     42 H42       -10.7109    4.1351   51.3759 H       1  ZINC000074782190    0.1400
     43 H43       -11.1564    4.0132   48.9328 H       1  ZINC000074782190    0.1300
     44 H44        -9.2585    3.9534   47.3650 H       1  ZINC000074782190    0.1600
     45 H45        -6.5340    4.1330   50.4908 H       1  ZINC000074782190    0.1500
     46 H46        -5.8819    1.8069   53.1526 H       1  ZINC000074782190    0.1000
     47 H47        -8.5337    2.2218   54.6034 H       1  ZINC000074782190    0.0600
     48 H48        -7.3529    0.9227   54.8977 H       1  ZINC000074782190    0.0700
     49 H49        -6.9368    2.6089   55.2879 H       1  ZINC000074782190    0.0600
     50 H50        -7.2875    1.3823   51.2052 H       1  ZINC000074782190    0.0700
     51 H51        -7.8081    0.3049   52.5230 H       1  ZINC000074782190    0.0700
     52 H52        -8.7572    1.7600   52.1357 H       1  ZINC000074782190    0.0700
@<TRIPOS>BOND
     1     1     2    1
     2     1    27    1
     3     1    28    1
     4     1    29    1
     5     2     7   ar
     6     2     3   ar
     7     3     4   ar
     8     3    30    1
     9     4     5   ar
    10     4    31    1
    11     5     6   ar
    12     5    32    1
    13     6     7   ar
    14     6    33    1
    15     7     8    1
    16     8     9    1
    17     9    10    1
    18     9    11    1
    19     9    12    1
    20    11    34    1
    21    11    35    1
    22    11    36    1
    23    12    13    1
    24    12    37    1
    25    12    38    1
    26    13    14   am
    27    13    39    1
    28    14    15    2
    29    14    16   am
    30    16    17    1
    31    16    24    1
    32    17    18    1
    33    17    40    1
    34    17    41    1
    35    18    23   ar
    36    18    19   ar
    37    19    20   ar
    38    19    42    1
    39    20    21   ar
    40    20    43    1
    41    21    22   ar
    42    21    44    1
    43    22    23   ar
    44    23    45    1
    45    24    25    1
    46    24    26    1
    47    24    46    1
    48    25    47    1
    49    25    48    1
    50    25    49    1
    51    26    50    1
    52    26    51    1
    53    26    52    1
@<TRIPOS>SUBSTRUCTURE
     1 ZINC000074782190        1 TEMP              0 ****  ****    0 ROOT


##########                                Name:    ZINC000444811358
##########                DOCK_Rotatable_Bonds:                  11
##########                         Heavy_Atoms:                  27
##########                    Molecular_Weight:             374.455
##########                DOCK_Rotatable_Bonds:                  11
##########                       Formal_Charge:          0.00999966
##########                     HBond_Acceptors:                   6
##########                        HBond_Donors:                   2
##########                         Heavy_Atoms:                  27
##########                          Grid_Score:          -29.189157
##########                     Grid_vdw_energy:          -28.290422
##########                      Grid_es_energy:           -0.898736
##########           Internal_energy_repulsive:           17.613106

@<TRIPOS>MOLECULE
ZINC000444811358
 54 55 1 0 0
SMALL
USER_CHARGES


@<TRIPOS>ATOM
      1 C1        -11.0092   -1.4814   55.0448 C.3     1  ZINC000444811358   -0.1100
      2 C2         -9.8247   -0.6730   54.5817 C.ar    1  ZINC000444811358   -0.1300
      3 C3         -9.1186    0.0970   55.4867 C.ar    1  ZINC000444811358   -0.0700
      4 C4         -8.0325    0.8396   55.0655 C.ar    1  ZINC000444811358   -0.1500
      5 C5         -7.6488    0.8124   53.7312 C.ar    1  ZINC000444811358    0.1700
      6 N6         -6.5488    1.5636   53.3030 N.am    1  ZINC000444811358   -0.6800
      7 C7         -6.7210    2.8341   52.8873 C.2     1  ZINC000444811358    0.5200
      8 O8         -7.8295    3.3262   52.8845 O.2     1  ZINC000444811358   -0.5000
      9 C9         -5.5362    3.6431   52.4261 C.3     1  ZINC000444811358    0.0200
     10 N10        -5.3765    4.8167   53.2951 N.3     1  ZINC000444811358   -0.5000
     11 C11        -4.7822    4.4399   54.5846 C.3     1  ZINC000444811358    0.0200
     12 C12        -5.6621    4.9603   55.7231 C.3     1  ZINC000444811358    0.1100
     13 H13        -5.9863    5.9759   55.4966 H       1  ZINC000444811358    0.1200
     14 O14        -6.8058    4.1156   55.8653 O.3     1  ZINC000444811358   -0.5400
     15 C15        -4.8620    4.9592   57.0273 C.3     1  ZINC000444811358    0.0300
     16 O16        -4.1767    3.7127   57.1646 O.3     1  ZINC000444811358   -0.3000
     17 C17        -3.3132    3.5951   58.2074 C.ar    1  ZINC000444811358    0.1300
     18 C18        -3.4060    4.4608   59.2875 C.ar    1  ZINC000444811358   -0.2100
     19 C19        -2.5273    4.3388   60.3465 C.ar    1  ZINC000444811358   -0.0800
     20 C20        -1.5558    3.3552   60.3303 C.ar    1  ZINC000444811358   -0.1600
     21 C21        -1.4609    2.4914   59.2549 C.ar    1  ZINC000444811358   -0.0800
     22 C22        -2.3411    2.6053   58.1962 C.ar    1  ZINC000444811358   -0.1500
     23 C23        -4.5798    5.8579   52.6325 C.3     1  ZINC000444811358    0.0700
     24 C24        -3.4316    5.2065   51.8588 C.3     1  ZINC000444811358   -0.1400
     25 C25        -5.4682    6.6407   51.6635 C.3     1  ZINC000444811358   -0.1900
     26 C26        -8.3584    0.0383   52.8228 C.ar    1  ZINC000444811358   -0.1500
     27 C27        -9.4419   -0.7075   53.2508 C.ar    1  ZINC000444811358    0.1200
     28 F28       -10.1336   -1.4612   52.3684 F       1  ZINC000444811358   -0.1300
     29 H29       -10.6746   -2.4711   55.3553 H       1  ZINC000444811358    0.0700
     30 H30       -11.4858   -0.9784   55.8863 H       1  ZINC000444811358    0.0700
     31 H31       -11.7241   -1.5793   54.2279 H       1  ZINC000444811358    0.0700
     32 H32        -9.4167    0.1183   56.5246 H       1  ZINC000444811358    0.1400
     33 H33        -7.4822    1.4412   55.7737 H       1  ZINC000444811358    0.1300
     34 H34        -5.6622    1.1701   53.3052 H       1  ZINC000444811358    0.4100
     35 H35        -4.6364    3.0299   52.4748 H       1  ZINC000444811358    0.1300
     36 H36        -5.6975    3.9708   51.3991 H       1  ZINC000444811358    0.0700
     37 H37        -4.7103    3.3541   54.6481 H       1  ZINC000444811358    0.0500
     38 H38        -3.7864    4.8755   54.6669 H       1  ZINC000444811358    0.1000
     39 H39        -7.5259    4.5110   56.3756 H       1  ZINC000444811358    0.3700
     40 H40        -4.1366    5.7725   57.0092 H       1  ZINC000444811358    0.0600
     41 H41        -5.5401    5.0958   57.8697 H       1  ZINC000444811358    0.0700
     42 H42        -4.1643    5.2297   59.3002 H       1  ZINC000444811358    0.1300
     43 H43        -2.5991    5.0125   61.1875 H       1  ZINC000444811358    0.1200
     44 H44        -0.8696    3.2616   61.1591 H       1  ZINC000444811358    0.1200
     45 H45        -0.7009    1.7241   59.2445 H       1  ZINC000444811358    0.1300
     46 H46        -2.2666    1.9304   57.3564 H       1  ZINC000444811358    0.1300
     47 H47        -4.1736    6.5369   53.3823 H       1  ZINC000444811358    0.0900
     48 H48        -3.8352    4.6319   51.0251 H       1  ZINC000444811358    0.0500
     49 H49        -2.7651    5.9804   51.4779 H       1  ZINC000444811358    0.0600
     50 H50        -2.8766    4.5433   52.5223 H       1  ZINC000444811358    0.0700
     51 H51        -6.2862    7.1047   52.2147 H       1  ZINC000444811358    0.0500
     52 H52        -4.8770    7.4132   51.1719 H       1  ZINC000444811358    0.0700
     53 H53        -5.8744    5.9618   50.9138 H       1  ZINC000444811358    0.0600
     54 H54        -8.0625    0.0155   51.7844 H       1  ZINC000444811358    0.1500
@<TRIPOS>BOND
     1     1     2    1
     2     1    29    1
     3     1    30    1
     4     1    31    1
     5     2    27   ar
     6     2     3   ar
     7     3     4   ar
     8     3    32    1
     9     4     5   ar
    10     4    33    1
    11     5     6    1
    12     5    26   ar
    13     6     7   am
    14     6    34    1
    15     7     8    2
    16     7     9    1
    17     9    10    1
    18     9    35    1
    19     9    36    1
    20    10    11    1
    21    10    23    1
    22    11    12    1
    23    11    37    1
    24    11    38    1
    25    12    13    1
    26    12    14    1
    27    12    15    1
    28    14    39    1
    29    15    16    1
    30    15    40    1
    31    15    41    1
    32    16    17    1
    33    17    22   ar
    34    17    18   ar
    35    18    19   ar
    36    18    42    1
    37    19    20   ar
    38    19    43    1
    39    20    21   ar
    40    20    44    1
    41    21    22   ar
    42    21    45    1
    43    22    46    1
    44    23    24    1
    45    23    25    1
    46    23    47    1
    47    24    48    1
    48    24    49    1
    49    24    50    1
    50    25    51    1
    51    25    52    1
    52    25    53    1
    53    26    27   ar
    54    26    54    1
    55    27    28    1
@<TRIPOS>SUBSTRUCTURE
     1 ZINC000444811358        1 TEMP              0 ****  ****    0 ROOT


##########                                Name:    ZINC001078748831
##########                DOCK_Rotatable_Bonds:                   6
##########                         Heavy_Atoms:                  23
##########                    Molecular_Weight:             333.417
##########                DOCK_Rotatable_Bonds:                   6
##########                       Formal_Charge:           0.0299999
##########                     HBond_Acceptors:                   9
##########                        HBond_Donors:                   2
##########                         Heavy_Atoms:                  23
##########                          Grid_Score:          -29.182705
##########                     Grid_vdw_energy:          -27.848938
##########                      Grid_es_energy:           -1.333767
##########           Internal_energy_repulsive:            6.625258

@<TRIPOS>MOLECULE
ZINC001078748831
 42 45 1 0 0
SMALL
USER_CHARGES


@<TRIPOS>ATOM
      1 C1         -8.9228    5.2171   47.7765 C.3     1  ZINC001078748831    0.1000
      2 N2         -7.9717    4.8413   48.8255 N.pl3   1  ZINC001078748831   -0.1400
      3 N3         -6.8467    5.4277   49.0308 N.2     1  ZINC001078748831   -0.2900
      4 C4         -6.2406    4.8501   50.0401 C.2     1  ZINC001078748831    0.0400
      5 C5         -7.1030    3.8202   50.4663 C.2     1  ZINC001078748831   -0.0500
      6 C6         -6.8818    2.8712   51.5777 C.2     1  ZINC001078748831    0.6200
      7 O7         -5.8572    2.9267   52.2294 O.2     1  ZINC001078748831   -0.5200
      8 N8         -7.8162    1.9445   51.8684 N.am    1  ZINC001078748831   -0.7000
      9 C9         -7.5963    1.0027   52.9689 C.3     1  ZINC001078748831    0.1500
     10 H10        -6.5669    1.0024   53.3272 H       1  ZINC001078748831    0.1100
     11 C11        -8.1567   -0.4054   52.6983 C.3     1  ZINC001078748831   -0.1800
     12 C12        -9.4757    0.0780   53.3282 C.3     1  ZINC001078748831    0.0800
     13 H13       -10.1676    0.5187   52.6105 H       1  ZINC001078748831    0.1000
     14 N14       -10.1136   -0.9189   54.1984 N.3     1  ZINC001078748831   -0.6700
     15 C15       -11.4476   -0.4721   54.6211 C.3     1  ZINC001078748831    0.1400
     16 C16       -12.0568   -1.5039   55.5351 C.2     1  ZINC001078748831    0.0600
     17 N17       -13.3388   -1.7218   55.6336 N.2     1  ZINC001078748831   -0.5700
     18 S18       -13.5662   -2.8595   56.6765 S.3     1  ZINC001078748831    0.6800
     19 N19       -12.0782   -3.1350   57.0552 N.2     1  ZINC001078748831   -0.5700
     20 C20       -11.3212   -2.3316   56.3606 C.2     1  ZINC001078748831    0.0500
     21 C21        -8.6350    1.1106   54.0858 C.3     1  ZINC001078748831   -0.1000
     22 C22        -8.2491    0.8957   55.5497 C.3     1  ZINC001078748831   -0.1000
     23 C23        -8.2462    2.4293   55.6839 C.3     1  ZINC001078748831   -0.1400
     24 C24        -9.2220    2.4623   54.4937 C.3     1  ZINC001078748831   -0.1200
     25 N25        -8.1555    3.8848   49.6651 N.2     1  ZINC001078748831   -0.2500
     26 H26        -9.6136    5.9661   48.1637 H       1  ZINC001078748831    0.1000
     27 H27        -8.3807    5.6286   46.9250 H       1  ZINC001078748831    0.1100
     28 H28        -9.4817    4.3364   47.4602 H       1  ZINC001078748831    0.1100
     29 H29        -5.2791    5.1096   50.4579 H       1  ZINC001078748831    0.2100
     30 H30        -8.6343    1.9010   51.3491 H       1  ZINC001078748831    0.4100
     31 H31        -8.2416   -0.6447   51.6383 H       1  ZINC001078748831    0.0700
     32 H32        -7.6614   -1.1893   53.2714 H       1  ZINC001078748831    0.1000
     33 H33       -10.1607   -1.8184   53.7438 H       1  ZINC001078748831    0.3500
     34 H34       -11.3623    0.4770   55.1502 H       1  ZINC001078748831    0.1000
     35 H35       -12.0824   -0.3434   53.7444 H       1  ZINC001078748831    0.0600
     36 H36       -10.2434   -2.3118   56.4276 H       1  ZINC001078748831    0.2000
     37 H37        -9.0245    0.4063   56.1392 H       1  ZINC001078748831    0.1000
     38 H38        -7.2663    0.4431   55.6811 H       1  ZINC001078748831    0.0700
     39 H39        -8.6836    2.7862   56.6164 H       1  ZINC001078748831    0.0700
     40 H40        -7.2795    2.8841   55.4680 H       1  ZINC001078748831    0.0800
     41 H41        -9.0163    3.2614   53.7814 H       1  ZINC001078748831    0.0700
     42 H42       -10.2709    2.4135   54.7862 H       1  ZINC001078748831    0.0900
@<TRIPOS>BOND
     1     1     2    1
     2     1    26    1
     3     1    27    1
     4     1    28    1
     5     2    25    1
     6     2     3    1
     7     3     4    2
     8     4     5    1
     9     4    29    1
    10     5     6    1
    11     5    25    2
    12     6     7    2
    13     6     8   am
    14     8     9    1
    15     8    30    1
    16     9    10    1
    17     9    21    1
    18     9    11    1
    19    11    12    1
    20    11    31    1
    21    11    32    1
    22    12    13    1
    23    12    14    1
    24    12    21    1
    25    14    15    1
    26    14    33    1
    27    15    16    1
    28    15    34    1
    29    15    35    1
    30    16    20    1
    31    16    17    2
    32    17    18    1
    33    18    19    1
    34    19    20    2
    35    20    36    1
    36    21    24    1
    37    21    22    1
    38    22    23    1
    39    22    37    1
    40    22    38    1
    41    23    24    1
    42    23    39    1
    43    23    40    1
    44    24    41    1
    45    24    42    1
@<TRIPOS>SUBSTRUCTURE
     1 ZINC001078748831        1 TEMP              0 ****  ****    0 ROOT


##########                                Name:    ZINC001004075025
##########                DOCK_Rotatable_Bonds:                   8
##########                         Heavy_Atoms:                  25
##########                    Molecular_Weight:              349.43
##########                DOCK_Rotatable_Bonds:                   8
##########                       Formal_Charge:         -0.00999999
##########                     HBond_Acceptors:                   7
##########                        HBond_Donors:                   1
##########                         Heavy_Atoms:                  25
##########                          Grid_Score:          -29.159880
##########                     Grid_vdw_energy:          -26.664316
##########                      Grid_es_energy:           -2.495563
##########           Internal_energy_repulsive:            6.620277

@<TRIPOS>MOLECULE
ZINC001004075025
 52 54 1 0 0
SMALL
USER_CHARGES


@<TRIPOS>ATOM
      1 C1         -8.9951    4.2968   49.8412 C.3     1  ZINC001004075025   -0.1500
      2 C2         -8.8631    3.8509   51.2989 C.3     1  ZINC001004075025   -0.1200
      3 C3         -7.6358    4.5152   51.9261 C.3     1  ZINC001004075025    0.0800
      4 H4         -7.7216    5.6002   51.8664 H       1  ZINC001004075025    0.0700
      5 C5         -7.4778    4.0686   53.4014 C.3     1  ZINC001004075025   -0.1500
      6 C6         -5.9543    4.2839   53.6129 C.3     1  ZINC001004075025   -0.1400
      7 C7         -5.3782    3.9359   52.2234 C.3     1  ZINC001004075025    0.0700
      8 H8         -5.0084    2.9106   52.2226 H       1  ZINC001004075025    0.1100
      9 C9         -4.2574    4.8838   51.8828 C.2     1  ZINC001004075025    0.5300
     10 O10        -4.4750    5.8574   51.1931 O.2     1  ZINC001004075025   -0.5200
     11 N11        -3.0129    4.6496   52.3444 N.am    1  ZINC001004075025   -0.6500
     12 C12        -1.7044    5.3136   52.2454 C.3     1  ZINC001004075025    0.1100
     13 C13        -1.0522    3.9382   52.4434 C.3     1  ZINC001004075025   -0.1400
     14 C14         0.1790    3.9527   53.3516 C.3     1  ZINC001004075025    0.1300
     15 N15         0.8522    2.6534   53.2822 N.am    1  ZINC001004075025   -0.7200
     16 C16         1.6720    2.3735   52.2496 C.2     1  ZINC001004075025    0.6000
     17 O17         1.8540    3.2000   51.3764 O.2     1  ZINC001004075025   -0.5300
     18 C18         2.3480    1.0655   52.1790 C.2     1  ZINC001004075025   -0.2700
     19 C19         2.2739    0.1157   51.1895 C.2     1  ZINC001004075025    0.0700
     20 C20         1.4651    0.1946   49.9204 C.3     1  ZINC001004075025   -0.0300
     21 C21         2.3399    0.7431   48.7914 C.3     1  ZINC001004075025   -0.1500
     22 C22         0.9660   -1.2025   49.5460 C.3     1  ZINC001004075025   -0.1500
     23 O23         3.0607   -0.8912   51.5757 O.3     1  ZINC001004075025    0.1000
     24 N24         3.5945   -0.6950   52.6399 N.2     1  ZINC001004075025   -0.3500
     25 C25         3.2736    0.4581   53.1475 C.2     1  ZINC001004075025    0.0200
     26 C26        -2.3674    3.6213   53.1742 C.3     1  ZINC001004075025    0.1100
     27 O27        -6.4382    4.0729   51.2677 O.3     1  ZINC001004075025   -0.3400
     28 H28        -9.8694    3.8235   49.3943 H       1  ZINC001004075025    0.0600
     29 H29        -9.1082    5.3801   49.8015 H       1  ZINC001004075025    0.0500
     30 H30        -8.1018    4.0043   49.2894 H       1  ZINC001004075025    0.0600
     31 H31        -9.7564    4.1434   51.8506 H       1  ZINC001004075025    0.0800
     32 H32        -8.7500    2.7675   51.3385 H       1  ZINC001004075025    0.0700
     33 H33        -8.0605    4.7037   54.0686 H       1  ZINC001004075025    0.0900
     34 H34        -7.7473    3.0198   53.5254 H       1  ZINC001004075025    0.0900
     35 H35        -5.7413    5.3208   53.8726 H       1  ZINC001004075025    0.0800
     36 H36        -5.5685    3.6052   54.3736 H       1  ZINC001004075025    0.0900
     37 H37        -1.5114    5.7484   51.2647 H       1  ZINC001004075025    0.0900
     38 H38        -1.5076    6.0089   53.0615 H       1  ZINC001004075025    0.0900
     39 H39        -0.9003    3.3787   51.5204 H       1  ZINC001004075025    0.1100
     40 H40         0.8636    4.7347   53.0230 H       1  ZINC001004075025    0.0800
     41 H41        -0.1294    4.1477   54.3787 H       1  ZINC001004075025    0.0800
     42 H42         0.7080    1.9945   53.9794 H       1  ZINC001004075025    0.4000
     43 H43         0.6124    0.8561   50.0734 H       1  ZINC001004075025    0.1300
     44 H44         3.1925    0.0816   48.6383 H       1  ZINC001004075025    0.0600
     45 H45         1.7549    0.8001   47.8734 H       1  ZINC001004075025    0.0700
     46 H46         2.6954    1.7384   49.0580 H       1  ZINC001004075025    0.0600
     47 H47         1.8186   -1.8640   49.3930 H       1  ZINC001004075025    0.0600
     48 H48         0.3427   -1.5932   50.3504 H       1  ZINC001004075025    0.0600
     49 H49         0.3809   -1.1454   48.6281 H       1  ZINC001004075025    0.0700
     50 H50         3.6098    0.8777   54.0843 H       1  ZINC001004075025    0.2000
     51 H51        -2.3441    3.8670   54.2359 H       1  ZINC001004075025    0.0900
     52 H52        -2.7391    2.6149   52.9819 H       1  ZINC001004075025    0.0800
@<TRIPOS>BOND
     1     1     2    1
     2     1    28    1
     3     1    29    1
     4     1    30    1
     5     2     3    1
     6     2    31    1
     7     2    32    1
     8     3     4    1
     9     3    27    1
    10     3     5    1
    11     5     6    1
    12     5    33    1
    13     5    34    1
    14     6     7    1
    15     6    35    1
    16     6    36    1
    17     7     8    1
    18     7     9    1
    19     7    27    1
    20     9    10    2
    21     9    11   am
    22    11    26    1
    23    11    12    1
    24    12    13    1
    25    12    37    1
    26    12    38    1
    27    13    14    1
    28    13    26    1
    29    13    39    1
    30    14    15    1
    31    14    40    1
    32    14    41    1
    33    15    16   am
    34    15    42    1
    35    16    17    2
    36    16    18    1
    37    18    25    1
    38    18    19    2
    39    19    20    1
    40    19    23    1
    41    20    21    1
    42    20    22    1
    43    20    43    1
    44    21    44    1
    45    21    45    1
    46    21    46    1
    47    22    47    1
    48    22    48    1
    49    22    49    1
    50    23    24    1
    51    24    25    2
    52    25    50    1
    53    26    51    1
    54    26    52    1
@<TRIPOS>SUBSTRUCTURE
     1 ZINC001004075025        1 TEMP              0 ****  ****    0 ROOT


##########                                Name:    ZINC001060733018
##########                DOCK_Rotatable_Bonds:                   7
##########                         Heavy_Atoms:                  24
##########                    Molecular_Weight:             342.429
##########                DOCK_Rotatable_Bonds:                   7
##########                       Formal_Charge:           0.0200001
##########                     HBond_Acceptors:                   6
##########                        HBond_Donors:                   2
##########                         Heavy_Atoms:                  24
##########                          Grid_Score:          -29.141253
##########                     Grid_vdw_energy:          -25.981066
##########                      Grid_es_energy:           -3.160187
##########           Internal_energy_repulsive:            6.269738

@<TRIPOS>MOLECULE
ZINC001060733018
 52 54 1 0 0
SMALL
USER_CHARGES


@<TRIPOS>ATOM
      1 O1         -9.1575   -0.4172   66.2406 O.2     1  ZINC001060733018   -0.5000
      2 C2         -8.5420    0.5060   65.7512 C.2     1  ZINC001060733018    0.4700
      3 N3         -8.6580    0.7707   64.4346 N.am    1  ZINC001060733018   -0.7100
      4 C4         -9.5244   -0.0594   63.5942 C.3     1  ZINC001060733018    0.1200
      5 C5         -9.0408    0.0041   62.1441 C.3     1  ZINC001060733018   -0.1000
      6 H6         -7.9983   -0.3105   62.0946 H       1  ZINC001060733018    0.0800
      7 C7         -9.8956   -0.9255   61.2802 C.3     1  ZINC001060733018   -0.1100
      8 C8         -9.4119   -0.8621   59.8301 C.3     1  ZINC001060733018   -0.1300
      9 C9         -9.5368    0.5725   59.3131 C.3     1  ZINC001060733018    0.1400
     10 H10       -10.5793    0.8870   59.3625 H       1  ZINC001060733018    0.0900
     11 N11        -9.0738    0.6332   57.9245 N.am    1  ZINC001060733018   -0.7300
     12 C12        -9.9431    0.4303   56.9147 C.2     1  ZINC001060733018    0.5200
     13 O13       -11.1090    0.1988   57.1556 O.2     1  ZINC001060733018   -0.5400
     14 C14        -9.4663    0.4910   55.4865 C.3     1  ZINC001060733018   -0.1000
     15 H15        -8.5778   -0.1302   55.3733 H       1  ZINC001060733018    0.1000
     16 C16        -9.1271    1.9374   55.1231 C.3     1  ZINC001060733018   -0.1100
     17 C17        -8.5724    1.9980   53.6992 C.3     1  ZINC001060733018   -0.1200
     18 C18        -9.6476    1.5326   52.7125 C.3     1  ZINC001060733018   -0.0800
     19 C19       -10.1051    0.1249   53.1057 C.3     1  ZINC001060733018   -0.1300
     20 C20        -9.3818   -1.0609   52.4678 C.3     1  ZINC001060733018   -0.1700
     21 C21       -10.8110   -0.7165   52.0432 C.3     1  ZINC001060733018   -0.1700
     22 C22       -10.5704   -0.0228   54.5573 C.3     1  ZINC001060733018   -0.0600
     23 C23        -8.6821    1.5021   60.1769 C.3     1  ZINC001060733018   -0.1200
     24 C24        -9.1657    1.4387   61.6271 C.3     1  ZINC001060733018   -0.1100
     25 C25        -7.6521    1.3611   66.6160 C.3     1  ZINC001060733018    0.2600
     26 F26        -8.1605    1.3940   67.9190 F       1  ZINC001060733018   -0.1700
     27 F27        -6.3610    0.8226   66.6327 F       1  ZINC001060733018   -0.1900
     28 H28        -8.1678    1.5108   64.0437 H       1  ZINC001060733018    0.4100
     29 H29        -9.4895   -1.0912   63.9440 H       1  ZINC001060733018    0.0800
     30 H30       -10.5485    0.3095   63.6521 H       1  ZINC001060733018    0.0800
     31 H31        -9.8065   -1.9476   61.6485 H       1  ZINC001060733018    0.0700
     32 H32       -10.9380   -0.6110   61.3297 H       1  ZINC001060733018    0.0700
     33 H33       -10.0208   -1.5243   59.2147 H       1  ZINC001060733018    0.0700
     34 H34        -8.3695   -1.1766   59.7807 H       1  ZINC001060733018    0.0600
     35 H35        -8.1415    0.8196   57.7319 H       1  ZINC001060733018    0.4000
     36 H36       -10.0279    2.5478   55.1873 H       1  ZINC001060733018    0.0700
     37 H37        -8.3799    2.3199   55.8185 H       1  ZINC001060733018    0.0700
     38 H38        -8.2833    3.0226   53.4651 H       1  ZINC001060733018    0.0700
     39 H39        -7.7011    1.3478   53.6206 H       1  ZINC001060733018    0.0700
     40 H40       -10.4963    2.2156   52.7484 H       1  ZINC001060733018    0.0700
     41 H41        -9.2344    1.5138   51.7041 H       1  ZINC001060733018    0.0700
     42 H42        -8.5803   -0.8414   51.7623 H       1  ZINC001060733018    0.0900
     43 H43        -9.2391   -1.9518   53.0794 H       1  ZINC001060733018    0.0900
     44 H44       -11.6087   -1.3809   52.3755 H       1  ZINC001060733018    0.0900
     45 H45       -10.9503   -0.2703   51.0585 H       1  ZINC001060733018    0.0900
     46 H46       -10.7690   -1.0729   54.7720 H       1  ZINC001060733018    0.0700
     47 H47       -11.4780    0.5610   54.7110 H       1  ZINC001060733018    0.0800
     48 H48        -8.7711    2.5241   59.8085 H       1  ZINC001060733018    0.0700
     49 H49        -7.6396    1.1876   60.1274 H       1  ZINC001060733018    0.0700
     50 H50       -10.2081    1.7533   61.6765 H       1  ZINC001060733018    0.0700
     51 H51        -8.5568    2.1009   62.2425 H       1  ZINC001060733018    0.0700
     52 H52        -7.6183    2.3734   66.2134 H       1  ZINC001060733018    0.1400
@<TRIPOS>BOND
     1     1     2    2
     2     2     3   am
     3     2    25    1
     4     3     4    1
     5     3    28    1
     6     4     5    1
     7     4    29    1
     8     4    30    1
     9     5     6    1
    10     5    24    1
    11     5     7    1
    12     7     8    1
    13     7    31    1
    14     7    32    1
    15     8     9    1
    16     8    33    1
    17     8    34    1
    18     9    10    1
    19     9    11    1
    20     9    23    1
    21    11    12   am
    22    11    35    1
    23    12    13    2
    24    12    14    1
    25    14    15    1
    26    14    22    1
    27    14    16    1
    28    16    17    1
    29    16    36    1
    30    16    37    1
    31    17    18    1
    32    17    38    1
    33    17    39    1
    34    18    19    1
    35    18    40    1
    36    18    41    1
    37    19    21    1
    38    19    20    1
    39    19    22    1
    40    20    21    1
    41    20    42    1
    42    20    43    1
    43    21    44    1
    44    21    45    1
    45    22    46    1
    46    22    47    1
    47    23    24    1
    48    23    48    1
    49    23    49    1
    50    24    50    1
    51    24    51    1
    52    25    26    1
    53    25    27    1
    54    25    52    1
@<TRIPOS>SUBSTRUCTURE
     1 ZINC001060733018        1 TEMP              0 ****  ****    0 ROOT


##########                                Name:    ZINC000898967786
##########                DOCK_Rotatable_Bonds:                   5
##########                         Heavy_Atoms:                  25
##########                    Molecular_Weight:             356.448
##########                DOCK_Rotatable_Bonds:                   5
##########                       Formal_Charge:        -2.38419e-07
##########                     HBond_Acceptors:                   7
##########                        HBond_Donors:                   1
##########                         Heavy_Atoms:                  25
##########                          Grid_Score:          -29.128151
##########                     Grid_vdw_energy:          -28.429682
##########                      Grid_es_energy:           -0.698470
##########           Internal_energy_repulsive:           11.248151

@<TRIPOS>MOLECULE
ZINC000898967786
 45 48 1 0 0
SMALL
USER_CHARGES


@<TRIPOS>ATOM
      1 C1        -10.2381   -1.1637   54.4106 C.3     1  ZINC000898967786   -0.0800
      2 C2         -9.3079    0.0186   54.5007 C.2     1  ZINC000898967786    0.0900
      3 C3         -9.4346    1.0577   55.3549 C.2     1  ZINC000898967786   -0.1000
      4 C4        -10.5218    1.2443   56.3815 C.3     1  ZINC000898967786    0.2200
      5 N5        -10.3241    0.2955   57.4801 N.am    1  ZINC000898967786   -0.7400
      6 C6         -9.8663    0.7295   58.6712 C.2     1  ZINC000898967786    0.7100
      7 O7         -9.6175    1.9084   58.8339 O.2     1  ZINC000898967786   -0.5800
      8 N8         -9.6845   -0.1435   59.6819 N.am    1  ZINC000898967786   -0.6300
      9 C9         -9.9788   -1.5748   59.5086 C.3     1  ZINC000898967786    0.0900
     10 C10       -10.8738   -2.0281   60.6676 C.3     1  ZINC000898967786    0.0500
     11 O11       -10.2680   -1.6499   61.9060 O.3     1  ZINC000898967786   -0.3700
     12 C12       -10.1191   -0.2385   62.0778 C.3     1  ZINC000898967786    0.1400
     13 H13       -11.0935    0.2430   61.9955 H       1  ZINC000898967786    0.0700
     14 C14        -9.5310    0.0441   63.4361 C.2     1  ZINC000898967786   -0.1100
     15 C15        -8.2389   -0.1412   63.7112 C.2     1  ZINC000898967786   -0.1800
     16 S16        -7.9245    0.2921   65.3865 S.3     1  ZINC000898967786    0.1100
     17 C17        -9.6154    0.7129   65.6264 C.2     1  ZINC000898967786   -0.2100
     18 C18       -10.2894    0.5210   64.4914 C.2     1  ZINC000898967786   -0.1300
     19 C19        -9.1800    0.3056   60.9893 C.3     1  ZINC000898967786    0.0900
     20 N20        -8.3906    1.9088   55.1136 N.pl3   1  ZINC000898967786   -0.3500
     21 C21        -8.0220    3.0991   55.6704 C.2     1  ZINC000898967786    0.0600
     22 C22        -6.9216    3.7490   55.2371 C.2     1  ZINC000898967786   -0.1400
     23 C23        -6.1393    3.2071   54.2039 C.2     1  ZINC000898967786   -0.1000
     24 C24        -6.4953    2.0215   53.6401 C.2     1  ZINC000898967786   -0.0800
     25 C25        -7.6470    1.3547   54.1040 C.2     1  ZINC000898967786    0.2400
     26 N26        -8.2182    0.2109   53.7538 N.2     1  ZINC000898967786   -0.4900
     27 H27        -9.8958   -1.9476   55.0863 H       1  ZINC000898967786    0.0800
     28 H28       -11.2452   -0.8559   54.6917 H       1  ZINC000898967786    0.0700
     29 H29       -10.2459   -1.5427   53.3887 H       1  ZINC000898967786    0.0800
     30 H30       -10.4845    2.2623   56.7695 H       1  ZINC000898967786    0.1000
     31 H31       -11.4927    1.0672   55.9188 H       1  ZINC000898967786    0.0700
     32 H32       -10.5226   -0.6450   57.3502 H       1  ZINC000898967786    0.4000
     33 H33       -10.4963   -1.7312   58.5622 H       1  ZINC000898967786    0.1100
     34 H34        -9.0495   -2.1444   59.5179 H       1  ZINC000898967786    0.0800
     35 H35       -11.8510   -1.5531   60.5803 H       1  ZINC000898967786    0.0600
     36 H36       -10.9906   -3.1114   60.6353 H       1  ZINC000898967786    0.1100
     37 H37        -7.4991   -0.5023   63.0122 H       1  ZINC000898967786    0.1700
     38 H38       -10.0417    1.0758   66.5499 H       1  ZINC000898967786    0.1700
     39 H39       -11.3482    0.7152   64.4046 H       1  ZINC000898967786    0.1400
     40 H40        -8.1716   -0.0755   61.1503 H       1  ZINC000898967786    0.0800
     41 H41        -9.1711    1.3951   61.0230 H       1  ZINC000898967786    0.0900
     42 H42        -8.6168    3.5249   56.4650 H       1  ZINC000898967786    0.1600
     43 H43        -6.6413    4.6902   55.6865 H       1  ZINC000898967786    0.1500
     44 H44        -5.2595    3.7297   53.8584 H       1  ZINC000898967786    0.1500
     45 H45        -5.9016    1.5956   52.8448 H       1  ZINC000898967786    0.1500
@<TRIPOS>BOND
     1     1     2    1
     2     1    27    1
     3     1    28    1
     4     1    29    1
     5     2    26    1
     6     2     3    2
     7     3     4    1
     8     3    20    1
     9     4     5    1
    10     4    30    1
    11     4    31    1
    12     5     6   am
    13     5    32    1
    14     6     7    2
    15     6     8   am
    16     8    19    1
    17     8     9    1
    18     9    10    1
    19     9    33    1
    20     9    34    1
    21    10    11    1
    22    10    35    1
    23    10    36    1
    24    11    12    1
    25    12    13    1
    26    12    14    1
    27    12    19    1
    28    14    18    1
    29    14    15    2
    30    15    16    1
    31    15    37    1
    32    16    17    1
    33    17    18    2
    34    17    38    1
    35    18    39    1
    36    19    40    1
    37    19    41    1
    38    20    25    1
    39    20    21    1
    40    21    22    2
    41    21    42    1
    42    22    23    1
    43    22    43    1
    44    23    24    2
    45    23    44    1
    46    24    25    1
    47    24    45    1
    48    25    26    2
@<TRIPOS>SUBSTRUCTURE
     1 ZINC000898967786        1 TEMP              0 ****  ****    0 ROOT


##########                                Name:    ZINC000518242403
##########                DOCK_Rotatable_Bonds:                   6
##########                         Heavy_Atoms:                  27
##########                    Molecular_Weight:             370.405
##########                DOCK_Rotatable_Bonds:                   6
##########                       Formal_Charge:          -0.0200004
##########                     HBond_Acceptors:                   7
##########                        HBond_Donors:                   1
##########                         Heavy_Atoms:                  27
##########                          Grid_Score:          -29.119774
##########                     Grid_vdw_energy:          -28.439852
##########                      Grid_es_energy:           -0.679922
##########           Internal_energy_repulsive:           17.560350

@<TRIPOS>MOLECULE
ZINC000518242403
 49 52 1 0 0
SMALL
USER_CHARGES


@<TRIPOS>ATOM
      1 C1         -8.3342   -0.5805   52.8091 C.3     1  ZINC000518242403   -0.1800
      2 C2         -9.7352   -0.9877   53.2698 C.3     1  ZINC000518242403    0.1000
      3 N3        -10.3481    0.1201   54.0068 N.am    1  ZINC000518242403   -0.6200
      4 C4        -10.8723    1.2807   53.2826 C.3     1  ZINC000518242403    0.1500
      5 C5        -11.4274    0.8297   51.9301 C.3     1  ZINC000518242403    0.0300
      6 H6        -10.6636    0.2739   51.3862 H       1  ZINC000518242403    0.0900
      7 C7        -12.6589   -0.0602   52.1468 C.3     1  ZINC000518242403    0.0300
      8 O8        -13.1600   -0.4521   50.8643 O.3     1  ZINC000518242403   -0.3000
      9 C9        -13.2771    0.5285   49.9277 C.ar    1  ZINC000518242403    0.0500
     10 C10       -14.0739    0.3138   48.8134 C.ar    1  ZINC000518242403   -0.1100
     11 C11       -14.2001    1.2992   47.8520 C.ar    1  ZINC000518242403   -0.1200
     12 C12       -13.5329    2.5007   47.9987 C.ar    1  ZINC000518242403   -0.1200
     13 C13       -12.7381    2.7217   49.1081 C.ar    1  ZINC000518242403   -0.1100
     14 C14       -12.6081    1.7380   50.0767 C.ar    1  ZINC000518242403    0.0500
     15 O15       -11.8279    1.9731   51.1670 O.3     1  ZINC000518242403   -0.3000
     16 C16       -10.4299    0.0715   55.3513 C.2     1  ZINC000518242403    0.7100
     17 O17       -10.9400    0.9903   55.9630 O.2     1  ZINC000518242403   -0.5700
     18 N18        -9.9463   -0.9954   56.0177 N.am    1  ZINC000518242403   -0.6800
     19 C19       -10.0313   -1.0460   57.4156 C.ar    1  ZINC000518242403    0.1700
     20 C20        -9.2294   -0.2191   58.1900 C.ar    1  ZINC000518242403   -0.1000
     21 C21        -9.3142   -0.2691   59.5715 C.ar    1  ZINC000518242403    0.0500
     22 C22       -10.2045   -1.1499   60.1809 C.ar    1  ZINC000518242403    0.0200
     23 C23       -11.0026   -1.9741   59.4042 C.ar    1  ZINC000518242403   -0.0800
     24 C24       -10.9216   -1.9191   58.0259 C.ar    1  ZINC000518242403   -0.1000
     25 C25       -11.7913   -2.8172   57.1843 C.3     1  ZINC000518242403   -0.1100
     26 O26       -10.0989   -1.0087   61.5355 O.3     1  ZINC000518242403   -0.3100
     27 C27        -8.8485   -0.3293   61.7546 C.3     1  ZINC000518242403    0.2100
     28 O28        -8.6513    0.4235   60.5433 O.3     1  ZINC000518242403   -0.3100
     29 H29        -8.4046    0.2927   52.1604 H       1  ZINC000518242403    0.0600
     30 H30        -7.7219   -0.3392   53.6779 H       1  ZINC000518242403    0.0600
     31 H31        -7.8782   -1.4047   52.2607 H       1  ZINC000518242403    0.0700
     32 H32       -10.3476   -1.2289   52.4008 H       1  ZINC000518242403    0.1000
     33 H33        -9.6649   -1.8609   53.9184 H       1  ZINC000518242403    0.0700
     34 H34       -11.6682    1.7438   53.8658 H       1  ZINC000518242403    0.1100
     35 H35       -10.0709    2.0023   53.1241 H       1  ZINC000518242403    0.0900
     36 H36       -12.3771   -0.9450   52.7175 H       1  ZINC000518242403    0.1300
     37 H37       -13.4248    0.4973   52.6861 H       1  ZINC000518242403    0.0800
     38 H38       -14.5963   -0.6241   48.6963 H       1  ZINC000518242403    0.1300
     39 H39       -14.8214    1.1300   46.9850 H       1  ZINC000518242403    0.1300
     40 H40       -13.6323    3.2680   47.2454 H       1  ZINC000518242403    0.1300
     41 H41       -12.2177    3.6613   49.2204 H       1  ZINC000518242403    0.1300
     42 H42        -9.5393   -1.7284   55.5298 H       1  ZINC000518242403    0.4100
     43 H43        -8.5395    0.4629   57.7154 H       1  ZINC000518242403    0.1500
     44 H44       -11.6930   -2.6570   59.8768 H       1  ZINC000518242403    0.1400
     45 H45       -12.7325   -2.3121   56.9672 H       1  ZINC000518242403    0.0800
     46 H46       -11.2789   -3.0479   56.2503 H       1  ZINC000518242403    0.0700
     47 H47       -11.9915   -3.7412   57.7267 H       1  ZINC000518242403    0.0800
     48 H48        -8.9207    0.3385   62.6131 H       1  ZINC000518242403    0.1300
     49 H49        -8.0413   -1.0484   61.8944 H       1  ZINC000518242403    0.0900
@<TRIPOS>BOND
     1     1     2    1
     2     1    29    1
     3     1    30    1
     4     1    31    1
     5     2     3    1
     6     2    32    1
     7     2    33    1
     8     3     4    1
     9     3    16   am
    10     4     5    1
    11     4    34    1
    12     4    35    1
    13     5     6    1
    14     5    15    1
    15     5     7    1
    16     7     8    1
    17     7    36    1
    18     7    37    1
    19     8     9    1
    20     9    14   ar
    21     9    10   ar
    22    10    11   ar
    23    10    38    1
    24    11    12   ar
    25    11    39    1
    26    12    13   ar
    27    12    40    1
    28    13    14   ar
    29    13    41    1
    30    14    15    1
    31    16    17    2
    32    16    18   am
    33    18    19    1
    34    18    42    1
    35    19    24   ar
    36    19    20   ar
    37    20    21   ar
    38    20    43    1
    39    21    28    1
    40    21    22   ar
    41    22    23   ar
    42    22    26    1
    43    23    24   ar
    44    23    44    1
    45    24    25    1
    46    25    45    1
    47    25    46    1
    48    25    47    1
    49    26    27    1
    50    27    28    1
    51    27    48    1
    52    27    49    1
@<TRIPOS>SUBSTRUCTURE
     1 ZINC000518242403        1 TEMP              0 ****  ****    0 ROOT


##########                                Name:    ZINC001110536231
##########                DOCK_Rotatable_Bonds:                   8
##########                         Heavy_Atoms:                  24
##########                    Molecular_Weight:             329.442
##########                DOCK_Rotatable_Bonds:                   8
##########                       Formal_Charge:          -0.0400001
##########                     HBond_Acceptors:                   5
##########                        HBond_Donors:                   1
##########                         Heavy_Atoms:                  24
##########                          Grid_Score:          -29.099125
##########                     Grid_vdw_energy:          -28.875002
##########                      Grid_es_energy:           -0.224123
##########           Internal_energy_repulsive:           28.558916

@<TRIPOS>MOLECULE
ZINC001110536231
 51 53 1 0 0
SMALL
USER_CHARGES


@<TRIPOS>ATOM
      1 C1        -14.7352   -4.1673   56.9979 C.3     1  ZINC001110536231   -0.1300
      2 C2        -13.4901   -3.2850   56.8886 C.3     1  ZINC001110536231   -0.1000
      3 C3        -13.1201   -2.7668   58.2545 C.2     1  ZINC001110536231   -0.0200
      4 C4        -14.1919   -2.2535   59.1814 C.3     1  ZINC001110536231   -0.1300
      5 C5        -11.8479   -2.7624   58.6421 C.2     1  ZINC001110536231   -0.2400
      6 C6        -11.4870   -2.2566   59.9753 C.2     1  ZINC001110536231    0.5400
      7 O7        -11.9142   -2.8084   60.9713 O.2     1  ZINC001110536231   -0.5300
      8 N8        -10.6829   -1.1814   60.0932 N.am    1  ZINC001110536231   -0.7300
      9 C9        -10.3220   -0.6786   61.4211 C.3     1  ZINC001110536231    0.1100
     10 H10       -10.6956   -1.3463   62.1974 H       1  ZINC001110536231    0.1000
     11 C11       -10.8667    0.7560   61.6274 C.3     1  ZINC001110536231   -0.1600
     12 C12        -9.5792    1.6070   61.8436 C.3     1  ZINC001110536231    0.0500
     13 H13        -9.6840    2.6755   61.6552 H       1  ZINC001110536231    0.1200
     14 C14        -9.0736    1.2209   63.2664 C.3     1  ZINC001110536231   -0.1200
     15 C15        -8.5301   -0.2168   63.0796 C.3     1  ZINC001110536231   -0.1100
     16 C16        -8.7777   -0.5068   61.5416 C.3     1  ZINC001110536231    0.0400
     17 H17        -8.1660   -1.2975   61.1073 H       1  ZINC001110536231    0.1200
     18 N18        -8.5997    0.8769   60.9620 N.3     1  ZINC001110536231   -0.4900
     19 C19        -9.0099    0.9136   59.5518 C.3     1  ZINC001110536231    0.0600
     20 C20        -8.0903    1.8287   58.7849 C.ar    1  ZINC001110536231    0.0100
     21 C21        -7.7134    1.5282   57.4834 C.ar    1  ZINC001110536231   -0.2100
     22 C22        -6.8697    2.3884   56.8088 C.ar    1  ZINC001110536231    0.1400
     23 N23        -6.4209    3.4866   57.3861 N.ar    1  ZINC001110536231   -0.5400
     24 C24        -6.7576    3.8069   58.6246 C.ar    1  ZINC001110536231    0.3200
     25 O25        -6.2731    4.9465   59.1791 O.3     1  ZINC001110536231   -0.3100
     26 C26        -5.8198    5.9626   58.2824 C.3     1  ZINC001110536231    0.0400
     27 C27        -7.6067    2.9909   59.3607 C.ar    1  ZINC001110536231   -0.1700
     28 H28       -15.0027   -4.5421   56.0100 H       1  ZINC001110536231    0.0500
     29 H29       -14.5284   -5.0070   57.6614 H       1  ZINC001110536231    0.0700
     30 H30       -15.5616   -3.5814   57.4003 H       1  ZINC001110536231    0.0400
     31 H31       -12.6636   -3.8710   56.4863 H       1  ZINC001110536231    0.0900
     32 H32       -13.6969   -2.4452   56.2251 H       1  ZINC001110536231    0.0600
     33 H33       -14.5657   -3.0737   59.7942 H       1  ZINC001110536231    0.0800
     34 H34       -13.7749   -1.4793   59.8256 H       1  ZINC001110536231    0.0700
     35 H35       -15.0102   -1.8361   58.5947 H       1  ZINC001110536231    0.0700
     36 H36       -11.0798   -3.1302   57.9778 H       1  ZINC001110536231    0.1200
     37 H37       -10.3431   -0.7404   59.2988 H       1  ZINC001110536231    0.4000
     38 H38       -11.4052    1.0930   60.7417 H       1  ZINC001110536231    0.0700
     39 H39       -11.5081    0.8000   62.5077 H       1  ZINC001110536231    0.0800
     40 H40        -8.2777    1.8935   63.5864 H       1  ZINC001110536231    0.0700
     41 H41        -9.8961    1.2304   63.9815 H       1  ZINC001110536231    0.0700
     42 H42        -7.4648   -0.2569   63.3071 H       1  ZINC001110536231    0.0800
     43 H43        -9.0832   -0.9200   63.7022 H       1  ZINC001110536231    0.0700
     44 H44        -8.9565   -0.0907   59.1315 H       1  ZINC001110536231    0.0900
     45 H45       -10.0327    1.2835   59.4804 H       1  ZINC001110536231    0.0700
     46 H46        -8.0759    0.6311   57.0036 H       1  ZINC001110536231    0.1300
     47 H47        -6.5732    2.1591   55.7960 H       1  ZINC001110536231    0.1600
     48 H48        -5.4588    6.8173   58.8544 H       1  ZINC001110536231    0.1000
     49 H49        -5.0108    5.5695   57.6668 H       1  ZINC001110536231    0.0600
     50 H50        -6.6443    6.2761   57.6419 H       1  ZINC001110536231    0.0600
     51 H51        -7.8798    3.2556   60.3715 H       1  ZINC001110536231    0.1400
@<TRIPOS>BOND
     1     1     2    1
     2     1    28    1
     3     1    29    1
     4     1    30    1
     5     2     3    1
     6     2    31    1
     7     2    32    1
     8     3     4    1
     9     3     5    2
    10     4    33    1
    11     4    34    1
    12     4    35    1
    13     5     6    1
    14     5    36    1
    15     6     7    2
    16     6     8   am
    17     8     9    1
    18     8    37    1
    19     9    10    1
    20     9    16    1
    21     9    11    1
    22    11    12    1
    23    11    38    1
    24    11    39    1
    25    12    13    1
    26    12    18    1
    27    12    14    1
    28    14    15    1
    29    14    40    1
    30    14    41    1
    31    15    16    1
    32    15    42    1
    33    15    43    1
    34    16    17    1
    35    16    18    1
    36    18    19    1
    37    19    20    1
    38    19    44    1
    39    19    45    1
    40    20    27   ar
    41    20    21   ar
    42    21    22   ar
    43    21    46    1
    44    22    23   ar
    45    22    47    1
    46    23    24   ar
    47    24    25    1
    48    24    27   ar
    49    25    26    1
    50    26    48    1
    51    26    49    1
    52    26    50    1
    53    27    51    1
@<TRIPOS>SUBSTRUCTURE
     1 ZINC001110536231        1 TEMP              0 ****  ****    0 ROOT


##########                                Name:    ZINC000599228306
##########                DOCK_Rotatable_Bonds:                   8
##########                         Heavy_Atoms:                  25
##########                    Molecular_Weight:             379.382
##########                DOCK_Rotatable_Bonds:                   8
##########                       Formal_Charge:        -4.09782e-08
##########                     HBond_Acceptors:                  10
##########                        HBond_Donors:                   1
##########                         Heavy_Atoms:                  25
##########                          Grid_Score:          -29.095005
##########                     Grid_vdw_energy:          -28.144836
##########                      Grid_es_energy:           -0.950169
##########           Internal_energy_repulsive:           18.397913

@<TRIPOS>MOLECULE
ZINC000599228306
 44 44 1 0 0
SMALL
USER_CHARGES


@<TRIPOS>ATOM
      1 C1         -1.2965   -1.7423   49.1105 C.3     1  ZINC000599228306    0.0400
      2 O2         -0.2614   -1.6011   50.1189 O.3     1  ZINC000599228306   -0.3500
      3 C3          0.9371   -1.1451   49.7056 C.2     1  ZINC000599228306    0.5100
      4 O4          1.3923   -1.5120   48.6406 O.2     1  ZINC000599228306   -0.4800
      5 C5          1.6970   -0.2000   50.5465 C.ar    1  ZINC000599228306   -0.1500
      6 C6          2.6703   -0.6727   51.4297 C.ar    1  ZINC000599228306   -0.0100
      7 C7          3.3774    0.2174   52.2136 C.ar    1  ZINC000599228306    0.0700
      8 F8          4.3192   -0.2384   53.0684 F       1  ZINC000599228306   -0.1200
      9 C9          3.1239    1.5774   52.1255 C.ar    1  ZINC000599228306    0.0100
     10 C10         2.1622    2.0530   51.2537 C.ar    1  ZINC000599228306   -0.7100
     11 S11         1.8490    3.7839   51.1498 S.o2    1  ZINC000599228306    2.7000
     12 O12         2.8445    4.4198   51.9397 O.2     1  ZINC000599228306   -0.9200
     13 O13         1.6469    4.0732   49.7733 O.2     1  ZINC000599228306   -0.9300
     14 N14         0.4022    4.0664   51.9043 N.am    1  ZINC000599228306   -1.1000
     15 C15         0.2349    3.7249   53.3191 C.3     1  ZINC000599228306    0.1600
     16 H16         0.7996    2.8200   53.5436 H       1  ZINC000599228306    0.1300
     17 C17         0.7498    4.8757   54.1858 C.3     1  ZINC000599228306   -0.1700
     18 C18        -1.2251    3.4910   53.6102 C.2     1  ZINC000599228306    0.4700
     19 O19        -1.5839    3.2388   54.7360 O.2     1  ZINC000599228306   -0.4900
     20 O20        -2.1270    3.5627   52.6186 O.3     1  ZINC000599228306   -0.3400
     21 C21        -3.2233    4.4989   52.7911 C.3     1  ZINC000599228306    0.1200
     22 C22        -2.6921    5.8010   53.3938 C.3     1  ZINC000599228306   -0.1900
     23 C23        -3.8642    4.7899   51.4327 C.3     1  ZINC000599228306   -0.1400
     24 C24        -4.2692    3.8924   53.7289 C.3     1  ZINC000599228306   -0.1800
     25 C25         1.4500    1.1742   50.4588 C.ar    1  ZINC000599228306    0.2500
     26 F26         0.5107    1.6405   49.6069 F       1  ZINC000599228306   -0.0900
     27 H27        -2.2082   -2.1171   49.5756 H       1  ZINC000599228306    0.1100
     28 H28        -1.4937   -0.7723   48.6540 H       1  ZINC000599228306    0.0700
     29 H29        -0.9645   -2.4434   48.3447 H       1  ZINC000599228306    0.0700
     30 H30         2.8691   -1.7320   51.4997 H       1  ZINC000599228306    0.1700
     31 H31         3.6801    2.2688   52.7410 H       1  ZINC000599228306    0.1800
     32 H32        -0.3345    4.4581   51.4096 H       1  ZINC000599228306    0.4300
     33 H33         0.6253    4.6216   55.2385 H       1  ZINC000599228306    0.0900
     34 H34         1.8059    5.0448   53.9753 H       1  ZINC000599228306    0.0700
     35 H35         0.1851    5.7806   53.9613 H       1  ZINC000599228306    0.0800
     36 H36        -1.9470    6.2332   52.7258 H       1  ZINC000599228306    0.0600
     37 H37        -3.5151    6.5038   53.5235 H       1  ZINC000599228306    0.0700
     38 H38        -2.2355    5.5937   54.3618 H       1  ZINC000599228306    0.0800
     39 H39        -4.2427    3.8623   51.0033 H       1  ZINC000599228306    0.0700
     40 H40        -4.6872    5.4928   51.5622 H       1  ZINC000599228306    0.0800
     41 H41        -3.1191    5.2222   50.7646 H       1  ZINC000599228306    0.0700
     42 H42        -3.8127    3.6851   54.6967 H       1  ZINC000599228306    0.0800
     43 H43        -5.0922    4.5952   53.8584 H       1  ZINC000599228306    0.0700
     44 H44        -4.6477    2.9648   53.2996 H       1  ZINC000599228306    0.0600
@<TRIPOS>BOND
     1     1     2    1
     2     1    27    1
     3     1    28    1
     4     1    29    1
     5     2     3    1
     6     3     4    2
     7     3     5    1
     8     5    25   ar
     9     5     6   ar
    10     6     7   ar
    11     6    30    1
    12     7     8    1
    13     7     9   ar
    14     9    10   ar
    15     9    31    1
    16    10    11    1
    17    10    25   ar
    18    11    12    2
    19    11    13    2
    20    11    14   am
    21    14    15    1
    22    14    32    1
    23    15    16    1
    24    15    17    1
    25    15    18    1
    26    17    33    1
    27    17    34    1
    28    17    35    1
    29    18    19    2
    30    18    20    1
    31    20    21    1
    32    21    22    1
    33    21    23    1
    34    21    24    1
    35    22    36    1
    36    22    37    1
    37    22    38    1
    38    23    39    1
    39    23    40    1
    40    23    41    1
    41    24    42    1
    42    24    43    1
    43    24    44    1
    44    25    26    1
@<TRIPOS>SUBSTRUCTURE
     1 ZINC000599228306        1 TEMP              0 ****  ****    0 ROOT


##########                                Name:    ZINC001041713551
##########                DOCK_Rotatable_Bonds:                  10
##########                         Heavy_Atoms:                  22
##########                    Molecular_Weight:             330.448
##########                DOCK_Rotatable_Bonds:                  10
##########                       Formal_Charge:          -0.0100006
##########                     HBond_Acceptors:                   7
##########                        HBond_Donors:                   2
##########                         Heavy_Atoms:                  22
##########                          Grid_Score:          -29.085945
##########                     Grid_vdw_energy:          -26.176044
##########                      Grid_es_energy:           -2.909901
##########           Internal_energy_repulsive:            5.001421

@<TRIPOS>MOLECULE
ZINC001041713551
 48 49 1 0 0
SMALL
USER_CHARGES


@<TRIPOS>ATOM
      1 C1         -3.0030    5.1978   59.3836 C.3     1  ZINC001041713551   -0.1500
      2 C2         -3.3576    3.8613   58.7284 C.3     1  ZINC001041713551   -0.1100
      3 C3         -2.5017    3.6645   57.4757 C.3     1  ZINC001041713551   -0.1000
      4 S4         -1.1070    2.5708   57.8619 S.3     1  ZINC001041713551   -0.1800
      5 C5          0.3044    3.7094   57.9059 C.3     1  ZINC001041713551   -0.1300
      6 C6          0.4070    4.4334   56.5882 C.2     1  ZINC001041713551    0.5300
      7 O7          0.2746    5.6382   56.5464 O.2     1  ZINC001041713551   -0.5100
      8 N8          0.6459    3.7420   55.4562 N.am    1  ZINC001041713551   -0.7300
      9 C9          0.7473    4.4461   54.1755 C.3     1  ZINC001041713551    0.1000
     10 C10         1.4769    3.5607   53.1632 C.3     1  ZINC001041713551    0.0900
     11 O11         2.7668    3.1438   53.6154 O.3     1  ZINC001041713551   -0.5200
     12 C12         0.6128    2.4151   52.6057 C.3     1  ZINC001041713551    0.0900
     13 N13         1.2037    2.7422   51.2936 N.am    1  ZINC001041713551   -0.6400
     14 C14         1.4121    2.0542   50.1535 C.2     1  ZINC001041713551    0.5500
     15 O15         1.9373    2.5974   49.2048 O.2     1  ZINC001041713551   -0.5100
     16 C16         0.9926    0.6099   50.0576 C.3     1  ZINC001041713551    0.0800
     17 H17         0.6805    0.2561   51.0402 H       1  ZINC001041713551    0.0800
     18 C18         2.1713   -0.2323   49.5626 C.3     1  ZINC001041713551   -0.1500
     19 C19         1.7203   -1.6882   49.4103 C.3     1  ZINC001041713551   -0.1200
     20 C20         0.5244   -1.7433   48.4547 C.3     1  ZINC001041713551   -0.1600
     21 C21        -0.5906   -0.8428   48.9925 C.3     1  ZINC001041713551    0.0600
     22 O22        -0.0960    0.4897   49.1398 O.3     1  ZINC001041713551   -0.3600
     23 C23         1.4748    4.1254   51.7310 C.3     1  ZINC001041713551    0.1200
     24 H24        -3.1948    6.0089   58.6813 H       1  ZINC001041713551    0.0600
     25 H25        -3.6127    5.3380   60.2761 H       1  ZINC001041713551    0.0600
     26 H26        -1.9486    5.1984   59.6601 H       1  ZINC001041713551    0.0600
     27 H27        -3.1657    3.0501   59.4307 H       1  ZINC001041713551    0.0700
     28 H28        -4.4120    3.8607   58.4519 H       1  ZINC001041713551    0.0700
     29 H29        -3.1077    3.2162   56.6883 H       1  ZINC001041713551    0.0800
     30 H30        -2.1239    4.6297   57.1384 H       1  ZINC001041713551    0.0800
     31 H31         0.1621    4.4335   58.7082 H       1  ZINC001041713551    0.1100
     32 H32         1.2204    3.1459   58.0832 H       1  ZINC001041713551    0.1100
     33 H33         0.7505    2.7782   55.4895 H       1  ZINC001041713551    0.4000
     34 H34        -0.2526    4.6731   53.8055 H       1  ZINC001041713551    0.0900
     35 H35         1.3028    5.3736   54.3138 H       1  ZINC001041713551    0.0900
     36 H36         2.7699    2.7751   54.5093 H       1  ZINC001041713551    0.3800
     37 H37         0.8932    1.4307   52.9807 H       1  ZINC001041713551    0.0900
     38 H38        -0.4590    2.6045   52.6643 H       1  ZINC001041713551    0.1000
     39 H39         2.5103    0.1467   48.5984 H       1  ZINC001041713551    0.0800
     40 H40         2.9868   -0.1771   50.2838 H       1  ZINC001041713551    0.0800
     41 H41         2.5387   -2.2830   49.0049 H       1  ZINC001041713551    0.0700
     42 H42         1.4279   -2.0830   50.3833 H       1  ZINC001041713551    0.0700
     43 H43         0.8301   -1.3949   47.4681 H       1  ZINC001041713551    0.0700
     44 H44         0.1620   -2.7689   48.3835 H       1  ZINC001041713551    0.0800
     45 H45        -1.4280   -0.8447   48.2946 H       1  ZINC001041713551    0.1000
     46 H46        -0.9238   -1.2157   49.9611 H       1  ZINC001041713551    0.0500
     47 H47         0.6562    4.8173   51.5328 H       1  ZINC001041713551    0.1100
     48 H48         2.4434    4.5066   51.4077 H       1  ZINC001041713551    0.1000
@<TRIPOS>BOND
     1     1     2    1
     2     1    24    1
     3     1    25    1
     4     1    26    1
     5     2     3    1
     6     2    27    1
     7     2    28    1
     8     3     4    1
     9     3    29    1
    10     3    30    1
    11     4     5    1
    12     5     6    1
    13     5    31    1
    14     5    32    1
    15     6     7    2
    16     6     8   am
    17     8     9    1
    18     8    33    1
    19     9    10    1
    20     9    34    1
    21     9    35    1
    22    10    23    1
    23    10    11    1
    24    10    12    1
    25    11    36    1
    26    12    13    1
    27    12    37    1
    28    12    38    1
    29    13    14   am
    30    13    23    1
    31    14    15    2
    32    14    16    1
    33    16    17    1
    34    16    22    1
    35    16    18    1
    36    18    19    1
    37    18    39    1
    38    18    40    1
    39    19    20    1
    40    19    41    1
    41    19    42    1
    42    20    21    1
    43    20    43    1
    44    20    44    1
    45    21    22    1
    46    21    45    1
    47    21    46    1
    48    23    47    1
    49    23    48    1
@<TRIPOS>SUBSTRUCTURE
     1 ZINC001041713551        1 TEMP              0 ****  ****    0 ROOT


##########                                Name:    ZINC000945148121
##########                DOCK_Rotatable_Bonds:                   6
##########                         Heavy_Atoms:                  24
##########                    Molecular_Weight:             332.446
##########                DOCK_Rotatable_Bonds:                   6
##########                       Formal_Charge:           0.0100009
##########                     HBond_Acceptors:                   6
##########                        HBond_Donors:                   2
##########                         Heavy_Atoms:                  24
##########                          Grid_Score:          -29.080597
##########                     Grid_vdw_energy:          -27.379564
##########                      Grid_es_energy:           -1.701033
##########           Internal_energy_repulsive:           21.645624

@<TRIPOS>MOLECULE
ZINC000945148121
 52 54 1 0 0
SMALL
USER_CHARGES


@<TRIPOS>ATOM
      1 O1        -10.1677    0.9894   62.5019 O.2     1  ZINC000945148121   -0.5100
      2 C2         -9.4071    0.0448   62.5075 C.2     1  ZINC000945148121    0.5200
      3 C3         -8.4323   -0.1310   63.6433 C.3     1  ZINC000945148121   -0.0500
      4 C4         -9.0388    0.4071   64.9136 C.2     1  ZINC000945148121    0.0100
      5 C5         -8.3639    0.9496   65.9450 C.2     1  ZINC000945148121   -0.0500
      6 N6         -9.2942    1.3046   66.8842 N.pl3   1  ZINC000945148121   -0.5700
      7 C7        -10.5062    0.9666   66.3937 C.2     1  ZINC000945148121    0.1800
      8 N8        -10.3461    0.4349   65.2126 N.2     1  ZINC000945148121   -0.4700
      9 N9         -9.4375   -0.8509   61.5009 N.am    1  ZINC000945148121   -0.7300
     10 C10       -10.3851   -0.6800   60.3968 C.3     1  ZINC000945148121    0.1500
     11 C11        -9.7265    0.1347   59.2812 C.3     1  ZINC000945148121   -0.1400
     12 C12       -10.7314    0.3408   58.1434 C.3     1  ZINC000945148121    0.1100
     13 N13       -11.2366   -0.9707   57.7152 N.am    1  ZINC000945148121   -0.6100
     14 C14       -11.1762   -1.3406   56.4206 C.2     1  ZINC000945148121    0.5200
     15 O15       -11.5979   -2.4253   56.0796 O.2     1  ZINC000945148121   -0.5400
     16 C16       -10.5848   -0.4061   55.3968 C.3     1  ZINC000945148121   -0.1000
     17 C17       -10.3074   -1.1603   54.1246 C.3     1  ZINC000945148121   -0.1200
     18 C18        -9.0559   -0.6402   53.3920 C.3     1  ZINC000945148121   -0.1200
     19 C19        -8.9612    0.8975   53.3890 C.3     1  ZINC000945148121   -0.1200
     20 C20       -10.2892    1.5557   53.1294 C.3     1  ZINC000945148121   -0.1200
     21 C21       -10.9462    1.8847   54.4855 C.3     1  ZINC000945148121   -0.1200
     22 C22       -11.5871    0.7248   55.0874 C.3     1  ZINC000945148121   -0.1000
     23 C23       -11.8083   -1.8718   58.7253 C.3     1  ZINC000945148121    0.1100
     24 C24       -10.7912   -2.0531   59.8564 C.3     1  ZINC000945148121   -0.1400
     25 H25        -8.2073   -1.1902   63.7684 H       1  ZINC000945148121    0.1000
     26 H26        -7.5136    0.4119   63.4210 H       1  ZINC000945148121    0.1000
     27 H27        -7.2942    1.0791   66.0173 H       1  ZINC000945148121    0.1800
     28 H28        -9.1161    1.7212   67.7418 H       1  ZINC000945148121    0.4200
     29 H29       -11.4516    1.1154   66.8941 H       1  ZINC000945148121    0.2100
     30 H30        -8.8318   -1.6086   61.5074 H       1  ZINC000945148121    0.4000
     31 H31       -11.2701   -0.1547   60.7558 H       1  ZINC000945148121    0.0900
     32 H32        -9.4165    1.1035   59.6727 H       1  ZINC000945148121    0.0800
     33 H33        -8.8556   -0.4017   58.9045 H       1  ZINC000945148121    0.0700
     34 H34       -11.5607    0.9546   58.4951 H       1  ZINC000945148121    0.0700
     35 H35       -10.2388    0.8340   57.3055 H       1  ZINC000945148121    0.1000
     36 H36        -9.6588    0.0206   55.7823 H       1  ZINC000945148121    0.1000
     37 H37       -10.1638   -2.2141   54.3635 H       1  ZINC000945148121    0.0700
     38 H38       -11.1684   -1.0648   53.4631 H       1  ZINC000945148121    0.0700
     39 H39        -8.1692   -1.0460   53.8792 H       1  ZINC000945148121    0.0600
     40 H40        -9.0801   -0.9928   52.3609 H       1  ZINC000945148121    0.0700
     41 H41        -8.5862    1.2297   54.3570 H       1  ZINC000945148121    0.0600
     42 H42        -8.2576    1.2061   52.6157 H       1  ZINC000945148121    0.0600
     43 H43       -10.1380    2.4748   52.5633 H       1  ZINC000945148121    0.0600
     44 H44       -10.9304    0.8771   52.5669 H       1  ZINC000945148121    0.0700
     45 H45       -10.1819    2.2587   55.1666 H       1  ZINC000945148121    0.0600
     46 H46       -11.6943    2.6631   54.3357 H       1  ZINC000945148121    0.0600
     47 H47       -12.3462    0.3461   54.4030 H       1  ZINC000945148121    0.0700
     48 H48       -12.0715    1.0306   56.0148 H       1  ZINC000945148121    0.0700
     49 H49       -12.7253   -1.4384   59.1243 H       1  ZINC000945148121    0.0700
     50 H50       -12.0260   -2.8385   58.2712 H       1  ZINC000945148121    0.1000
     51 H51        -9.9103   -2.5688   59.4743 H       1  ZINC000945148121    0.0700
     52 H52       -11.2390   -2.6414   60.6574 H       1  ZINC000945148121    0.0800
@<TRIPOS>BOND
     1     1     2    2
     2     2     3    1
     3     2     9   am
     4     3     4    1
     5     3    25    1
     6     3    26    1
     7     4     8    1
     8     4     5    2
     9     5     6    1
    10     5    27    1
    11     6     7    1
    12     6    28    1
    13     7     8    2
    14     7    29    1
    15     9    10    1
    16     9    30    1
    17    10    24    1
    18    10    11    1
    19    10    31    1
    20    11    12    1
    21    11    32    1
    22    11    33    1
    23    12    13    1
    24    12    34    1
    25    12    35    1
    26    13    14   am
    27    13    23    1
    28    14    15    2
    29    14    16    1
    30    16    22    1
    31    16    17    1
    32    16    36    1
    33    17    18    1
    34    17    37    1
    35    17    38    1
    36    18    19    1
    37    18    39    1
    38    18    40    1
    39    19    20    1
    40    19    41    1
    41    19    42    1
    42    20    21    1
    43    20    43    1
    44    20    44    1
    45    21    22    1
    46    21    45    1
    47    21    46    1
    48    22    47    1
    49    22    48    1
    50    23    24    1
    51    23    49    1
    52    23    50    1
    53    24    51    1
    54    24    52    1
@<TRIPOS>SUBSTRUCTURE
     1 ZINC000945148121        1 TEMP              0 ****  ****    0 ROOT


##########                                Name:    ZINC000979274057
##########                DOCK_Rotatable_Bonds:                   6
##########                         Heavy_Atoms:                  24
##########                    Molecular_Weight:              330.39
##########                DOCK_Rotatable_Bonds:                   6
##########                       Formal_Charge:          0.00999946
##########                     HBond_Acceptors:                   8
##########                        HBond_Donors:                   1
##########                         Heavy_Atoms:                  24
##########                          Grid_Score:          -29.076788
##########                     Grid_vdw_energy:          -27.004581
##########                      Grid_es_energy:           -2.072206
##########           Internal_energy_repulsive:           11.044015

@<TRIPOS>MOLECULE
ZINC000979274057
 46 48 1 0 0
SMALL
USER_CHARGES


@<TRIPOS>ATOM
      1 C1        -10.4403    0.5814   56.5132 C.3     1  ZINC000979274057   -0.1400
      2 C2        -10.9560   -0.7045   55.8642 C.3     1  ZINC000979274057    0.1000
      3 H3        -10.1868   -1.4747   55.9223 H       1  ZINC000979274057    0.0600
      4 N4        -11.2837   -0.4451   54.4559 N.3     1  ZINC000979274057   -0.6700
      5 C5        -10.2678   -1.0204   53.5644 C.3     1  ZINC000979274057    0.1300
      6 C6         -9.2358    0.0277   53.2363 C.ar    1  ZINC000979274057    0.3200
      7 N7         -9.5461    0.9911   52.3921 N.ar    1  ZINC000979274057   -0.5200
      8 C8         -8.6659    1.9287   52.0801 C.ar    1  ZINC000979274057    0.1500
      9 C9         -7.4049    1.8874   52.6541 C.ar    1  ZINC000979274057   -0.2300
     10 C10        -7.1160    0.8589   53.5370 C.ar    1  ZINC000979274057    0.1500
     11 N11        -8.0489   -0.0405   53.8052 N.ar    1  ZINC000979274057   -0.5000
     12 C12       -12.2102   -1.1799   56.6005 C.3     1  ZINC000979274057    0.0800
     13 H13       -12.8578   -0.3272   56.8044 H       1  ZINC000979274057    0.0700
     14 C14       -11.8073   -1.8443   57.9219 C.3     1  ZINC000979274057    0.0800
     15 N15       -13.0055   -2.4560   58.5180 N.am    1  ZINC000979274057   -0.6000
     16 C16       -13.3403   -2.2182   59.8017 C.2     1  ZINC000979274057    0.6100
     17 O17       -14.3349   -2.7330   60.2761 O.2     1  ZINC000979274057   -0.5400
     18 C18       -12.5017   -1.3348   60.6303 C.2     1  ZINC000979274057   -0.0600
     19 C19       -11.2151   -1.5731   61.0160 C.2     1  ZINC000979274057    0.0400
     20 N20       -10.8255   -0.5123   61.7613 N.pl3   1  ZINC000979274057   -0.4600
     21 C21        -9.5138   -0.3323   62.3886 C.3     1  ZINC000979274057    0.0700
     22 C22       -11.8687    0.3557   61.8229 C.2     1  ZINC000979274057    0.1900
     23 N23       -12.8666   -0.1324   61.1443 N.2     1  ZINC000979274057   -0.4600
     24 C24       -13.8278   -3.3347   57.6712 C.3     1  ZINC000979274057    0.0500
     25 C25       -14.1322   -2.5976   56.3619 C.3     1  ZINC000979274057    0.0500
     26 O26       -12.9093   -2.1276   55.7899 O.3     1  ZINC000979274057   -0.3600
     27 H27        -9.5468    0.9200   55.9887 H       1  ZINC000979274057    0.0600
     28 H28       -11.2094    1.3515   56.4550 H       1  ZINC000979274057    0.0700
     29 H29       -10.1971    0.3889   57.5581 H       1  ZINC000979274057    0.0600
     30 H30       -12.2031   -0.7931   54.2286 H       1  ZINC000979274057    0.3500
     31 H31        -9.7850   -1.8630   54.0596 H       1  ZINC000979274057    0.1000
     32 H32       -10.7429   -1.3629   52.6452 H       1  ZINC000979274057    0.0600
     33 H33        -8.9264    2.7152   51.3874 H       1  ZINC000979274057    0.1700
     34 H34        -6.6653    2.6383   52.4186 H       1  ZINC000979274057    0.1500
     35 H35        -6.1438    0.7946   54.0029 H       1  ZINC000979274057    0.1700
     36 H36       -11.0581   -2.6132   57.7328 H       1  ZINC000979274057    0.0700
     37 H37       -11.4013   -1.0946   58.6010 H       1  ZINC000979274057    0.1000
     38 H38       -10.6211   -2.4418   60.7734 H       1  ZINC000979274057    0.1900
     39 H39        -8.8476    0.1827   61.6965 H       1  ZINC000979274057    0.0800
     40 H40        -9.6236    0.2608   63.2965 H       1  ZINC000979274057    0.0900
     41 H41        -9.0943   -1.3065   62.6396 H       1  ZINC000979274057    0.0900
     42 H42       -11.8687    1.3001   62.3468 H       1  ZINC000979274057    0.2100
     43 H43       -13.2820   -4.2536   57.4567 H       1  ZINC000979274057    0.0700
     44 H44       -14.7597   -3.5719   58.1841 H       1  ZINC000979274057    0.1500
     45 H45       -14.6215   -3.2789   55.6658 H       1  ZINC000979274057    0.1100
     46 H46       -14.7876   -1.7506   56.5649 H       1  ZINC000979274057    0.0500
@<TRIPOS>BOND
     1     1     2    1
     2     1    27    1
     3     1    28    1
     4     1    29    1
     5     2     3    1
     6     2     4    1
     7     2    12    1
     8     4     5    1
     9     4    30    1
    10     5     6    1
    11     5    31    1
    12     5    32    1
    13     6    11   ar
    14     6     7   ar
    15     7     8   ar
    16     8     9   ar
    17     8    33    1
    18     9    10   ar
    19     9    34    1
    20    10    11   ar
    21    10    35    1
    22    12    13    1
    23    12    26    1
    24    12    14    1
    25    14    15    1
    26    14    36    1
    27    14    37    1
    28    15    16   am
    29    15    24    1
    30    16    17    2
    31    16    18    1
    32    18    23    1
    33    18    19    2
    34    19    20    1
    35    19    38    1
    36    20    21    1
    37    20    22    1
    38    21    39    1
    39    21    40    1
    40    21    41    1
    41    22    23    2
    42    22    42    1
    43    24    25    1
    44    24    43    1
    45    24    44    1
    46    25    26    1
    47    25    45    1
    48    25    46    1
@<TRIPOS>SUBSTRUCTURE
     1 ZINC000979274057        1 TEMP              0 ****  ****    0 ROOT


##########                                Name:    ZINC001248546333
##########                DOCK_Rotatable_Bonds:                   6
##########                         Heavy_Atoms:                  27
##########                    Molecular_Weight:             378.397
##########                DOCK_Rotatable_Bonds:                   6
##########                       Formal_Charge:         3.94881e-07
##########                     HBond_Acceptors:                   8
##########                        HBond_Donors:                   1
##########                         Heavy_Atoms:                  27
##########                          Grid_Score:          -29.061773
##########                     Grid_vdw_energy:          -30.093760
##########                      Grid_es_energy:            1.031987
##########           Internal_energy_repulsive:           30.600790

@<TRIPOS>MOLECULE
ZINC001248546333
 48 50 1 0 0
SMALL
USER_CHARGES


@<TRIPOS>ATOM
      1 C1         -4.7234    3.7035   57.4576 C.3     1  ZINC001248546333   -0.1200
      2 C2         -3.2268    3.5292   57.4299 C.ar    1  ZINC001248546333   -0.0800
      3 C3         -2.5504    3.1873   58.5870 C.ar    1  ZINC001248546333   -0.1200
      4 C4         -1.1763    3.0252   58.5699 C.ar    1  ZINC001248546333   -0.1100
      5 C5         -0.4723    3.2036   57.3970 C.ar    1  ZINC001248546333   -0.1100
      6 C6         -1.1488    3.5481   56.2262 C.ar    1  ZINC001248546333   -0.0600
      7 C7         -0.4007    3.7407   54.9659 C.2     1  ZINC001248546333   -0.0600
      8 C8          0.9035    3.6122   55.0031 C.2     1  ZINC001248546333   -0.1700
      9 C9          1.7887    3.7978   53.8020 C.3     1  ZINC001248546333    0.1500
     10 N10         0.9540    3.8698   52.5942 N.am    1  ZINC001248546333   -0.6300
     11 C11         1.2962    3.2171   51.4658 C.2     1  ZINC001248546333    0.7200
     12 O12         0.5877    3.2936   50.4807 O.2     1  ZINC001248546333   -0.5800
     13 N13         2.4237    2.4796   51.4293 N.am    1  ZINC001248546333   -0.7500
     14 C14         2.7956    1.7702   50.2027 C.3     1  ZINC001248546333    0.2000
     15 C15         2.0267    0.4769   50.1177 C.2     1  ZINC001248546333    0.0700
     16 C16         0.9882    0.2191   49.2893 C.2     1  ZINC001248546333   -0.2000
     17 C17         0.5632   -1.0920   49.5273 C.2     1  ZINC001248546333   -0.0200
     18 C18        -0.5696   -1.7949   48.8245 C.3     1  ZINC001248546333    0.5600
     19 F19        -0.2181   -3.1290   48.5923 F       1  ZINC001248546333   -0.1700
     20 F20        -1.7161   -1.7471   49.6247 F       1  ZINC001248546333   -0.1700
     21 F21        -0.8261   -1.1611   47.6040 F       1  ZINC001248546333   -0.1600
     22 N22         1.3193   -1.6031   50.4646 N.2     1  ZINC001248546333   -0.2200
     23 N23         2.2543   -0.6336   50.8498 N.pl3   1  ZINC001248546333   -0.3400
     24 C24         3.2904   -0.7940   51.8732 C.3     1  ZINC001248546333    0.0900
     25 C25        -0.2713    4.6844   52.6665 C.3     1  ZINC001248546333    0.1300
     26 C26        -1.1851    4.0640   53.7291 C.3     1  ZINC001248546333   -0.1000
     27 C27        -2.5349    3.7051   56.2490 C.ar    1  ZINC001248546333   -0.1100
     28 H28        -5.2045    2.7488   57.2452 H       1  ZINC001248546333    0.0700
     29 H29        -5.0302    4.0536   58.4432 H       1  ZINC001248546333    0.0700
     30 H30        -5.0181    4.4344   56.7044 H       1  ZINC001248546333    0.0700
     31 H31        -3.0969    3.0466   59.5078 H       1  ZINC001248546333    0.1200
     32 H32        -0.6539    2.7591   59.4769 H       1  ZINC001248546333    0.1200
     33 H33         0.6003    3.0772   57.3851 H       1  ZINC001248546333    0.1200
     34 H34         1.3663    3.3602   55.9458 H       1  ZINC001248546333    0.1200
     35 H35         2.3570    4.7218   53.9077 H       1  ZINC001248546333    0.0800
     36 H36         2.4745    2.9543   53.7212 H       1  ZINC001248546333    0.0800
     37 H37         2.9889    2.4187   52.2152 H       1  ZINC001248546333    0.4000
     38 H38         2.5595    2.3909   49.3383 H       1  ZINC001248546333    0.1000
     39 H39         3.8645    1.5573   50.2160 H       1  ZINC001248546333    0.0900
     40 H40         0.5626    0.9048   48.5717 H       1  ZINC001248546333    0.1700
     41 H41         4.1997   -1.1796   51.4123 H       1  ZINC001248546333    0.0900
     42 H42         3.4979    0.1716   52.3343 H       1  ZINC001248546333    0.1000
     43 H43         2.9440   -1.4931   52.6343 H       1  ZINC001248546333    0.1000
     44 H44        -0.0180    5.7073   52.9449 H       1  ZINC001248546333    0.0700
     45 H45        -0.7753    4.6787   51.7001 H       1  ZINC001248546333    0.1000
     46 H46        -1.6341    3.1538   53.3316 H       1  ZINC001248546333    0.0800
     47 H47        -1.9749    4.7712   53.9827 H       1  ZINC001248546333    0.0900
     48 H48        -3.0643    3.9717   55.3461 H       1  ZINC001248546333    0.1200
@<TRIPOS>BOND
     1     1     2    1
     2     1    28    1
     3     1    29    1
     4     1    30    1
     5     2    27   ar
     6     2     3   ar
     7     3     4   ar
     8     3    31    1
     9     4     5   ar
    10     4    32    1
    11     5     6   ar
    12     5    33    1
    13     6     7    1
    14     6    27   ar
    15     7    26    1
    16     7     8    2
    17     8     9    1
    18     8    34    1
    19     9    10    1
    20     9    35    1
    21     9    36    1
    22    10    11   am
    23    10    25    1
    24    11    12    2
    25    11    13   am
    26    13    14    1
    27    13    37    1
    28    14    15    1
    29    14    38    1
    30    14    39    1
    31    15    23    1
    32    15    16    2
    33    16    17    1
    34    16    40    1
    35    17    18    1
    36    17    22    2
    37    18    19    1
    38    18    20    1
    39    18    21    1
    40    22    23    1
    41    23    24    1
    42    24    41    1
    43    24    42    1
    44    24    43    1
    45    25    26    1
    46    25    44    1
    47    25    45    1
    48    26    46    1
    49    26    47    1
    50    27    48    1
@<TRIPOS>SUBSTRUCTURE
     1 ZINC001248546333        1 TEMP              0 ****  ****    0 ROOT


##########                                Name:    ZINC000981048968
##########                DOCK_Rotatable_Bonds:                   7
##########                         Heavy_Atoms:                  25
##########                    Molecular_Weight:             344.414
##########                DOCK_Rotatable_Bonds:                   7
##########                       Formal_Charge:                0.02
##########                     HBond_Acceptors:                   7
##########                        HBond_Donors:                   2
##########                         Heavy_Atoms:                  25
##########                          Grid_Score:          -29.044077
##########                     Grid_vdw_energy:          -27.219112
##########                      Grid_es_energy:           -1.824964
##########           Internal_energy_repulsive:            4.927078

@<TRIPOS>MOLECULE
ZINC000981048968
 49 52 1 0 0
SMALL
USER_CHARGES


@<TRIPOS>ATOM
      1 C1         -1.2916    4.1642   52.3407 C.3     1  ZINC000981048968   -0.0800
      2 C2         -2.7895    4.0777   52.1989 C.2     1  ZINC000981048968   -0.0100
      3 C3         -3.6414    3.6959   53.1627 C.2     1  ZINC000981048968   -0.1600
      4 C4         -4.9837    3.7683   52.5675 C.2     1  ZINC000981048968   -0.2300
      5 C5         -6.2660    3.4490   53.2200 C.2     1  ZINC000981048968    0.5900
      6 O6         -7.3120    3.8057   52.7125 O.2     1  ZINC000981048968   -0.5300
      7 N7         -6.2794    2.7615   54.3792 N.am    1  ZINC000981048968   -0.7300
      8 C8         -7.5540    2.4456   55.0288 C.3     1  ZINC000981048968    0.1500
      9 H9         -8.3460    3.0521   54.5893 H       1  ZINC000981048968    0.0900
     10 C10        -7.4520    2.7467   56.5255 C.3     1  ZINC000981048968   -0.1300
     11 C11        -8.7831    2.4167   57.2039 C.3     1  ZINC000981048968   -0.1200
     12 C12        -9.1045    0.9345   57.0025 C.3     1  ZINC000981048968   -0.1100
     13 C13        -9.2065    0.6334   55.5059 C.3     1  ZINC000981048968    0.1000
     14 H14        -9.9984    1.2399   55.0664 H       1  ZINC000981048968    0.0500
     15 N15        -9.5151   -0.7897   55.3126 N.3     1  ZINC000981048968   -0.6800
     16 C16       -10.9345   -0.9810   54.9859 C.3     1  ZINC000981048968    0.1500
     17 C17       -11.1391   -0.7909   53.5051 C.2     1  ZINC000981048968    0.1800
     18 N18       -10.2520   -0.9826   52.5752 N.2     1  ZINC000981048968   -0.3800
     19 O19       -10.7278   -0.7438   51.4853 O.3     1  ZINC000981048968    0.0800
     20 C20       -12.0024   -0.3657   51.6204 C.2     1  ZINC000981048968    0.2100
     21 C21       -12.9473    0.0182   50.5109 C.3     1  ZINC000981048968   -0.0800
     22 C22       -14.1365    0.9102   50.8728 C.3     1  ZINC000981048968   -0.1600
     23 C23       -12.9648    1.4842   50.0736 C.3     1  ZINC000981048968   -0.1500
     24 N24       -12.2754   -0.3972   52.9026 N.2     1  ZINC000981048968   -0.4600
     25 C25        -7.8754    0.9634   54.8275 C.3     1  ZINC000981048968   -0.1300
     26 C26        -4.7944    4.1938   51.2852 C.2     1  ZINC000981048968    0.0200
     27 O27        -3.4847    4.3758   51.0903 O.3     1  ZINC000981048968   -0.1700
     28 H28        -0.8570    4.5067   51.4017 H       1  ZINC000981048968    0.0800
     29 H29        -1.0419    4.8680   53.1347 H       1  ZINC000981048968    0.0900
     30 H30        -0.8927    3.1805   52.5883 H       1  ZINC000981048968    0.0900
     31 H31        -3.3919    3.3962   54.1699 H       1  ZINC000981048968    0.1600
     32 H32        -5.4452    2.4759   54.7834 H       1  ZINC000981048968    0.4000
     33 H33        -6.6601    2.1402   56.9649 H       1  ZINC000981048968    0.0700
     34 H34        -7.2231    3.8026   56.6688 H       1  ZINC000981048968    0.0700
     35 H35        -8.7105    2.6312   58.2701 H       1  ZINC000981048968    0.0700
     36 H36        -9.5751    3.0232   56.7643 H       1  ZINC000981048968    0.0600
     37 H37        -8.3126    0.3280   57.4420 H       1  ZINC000981048968    0.0700
     38 H38       -10.0528    0.6994   57.4858 H       1  ZINC000981048968    0.0700
     39 H39        -8.9229   -1.1950   54.6032 H       1  ZINC000981048968    0.3500
     40 H40       -11.2396   -1.9885   55.2686 H       1  ZINC000981048968    0.1100
     41 H41       -11.5343   -0.2530   55.5320 H       1  ZINC000981048968    0.0600
     42 H42       -13.1010   -0.7384   49.7415 H       1  ZINC000981048968    0.1500
     43 H43       -15.0730    0.7404   50.3415 H       1  ZINC000981048968    0.1200
     44 H44       -14.2355    1.2193   51.9133 H       1  ZINC000981048968    0.1100
     45 H45       -12.2931    2.1710   50.5884 H       1  ZINC000981048968    0.1000
     46 H46       -13.1306    1.6921   49.0165 H       1  ZINC000981048968    0.1200
     47 H47        -7.9480    0.7488   53.7613 H       1  ZINC000981048968    0.0700
     48 H48        -7.0835    0.3569   55.2670 H       1  ZINC000981048968    0.0800
     49 H49        -5.5711    4.3590   50.5532 H       1  ZINC000981048968    0.2100
@<TRIPOS>BOND
     1     1     2    1
     2     1    28    1
     3     1    29    1
     4     1    30    1
     5     2    27    1
     6     2     3    2
     7     3     4    1
     8     3    31    1
     9     4     5    1
    10     4    26    2
    11     5     6    2
    12     5     7   am
    13     7     8    1
    14     7    32    1
    15     8     9    1
    16     8    25    1
    17     8    10    1
    18    10    11    1
    19    10    33    1
    20    10    34    1
    21    11    12    1
    22    11    35    1
    23    11    36    1
    24    12    13    1
    25    12    37    1
    26    12    38    1
    27    13    14    1
    28    13    15    1
    29    13    25    1
    30    15    16    1
    31    15    39    1
    32    16    17    1
    33    16    40    1
    34    16    41    1
    35    17    24    1
    36    17    18    2
    37    18    19    1
    38    19    20    1
    39    20    21    1
    40    20    24    2
    41    21    23    1
    42    21    22    1
    43    21    42    1
    44    22    23    1
    45    22    43    1
    46    22    44    1
    47    23    45    1
    48    23    46    1
    49    25    47    1
    50    25    48    1
    51    26    27    1
    52    26    49    1
@<TRIPOS>SUBSTRUCTURE
     1 ZINC000981048968        1 TEMP              0 ****  ****    0 ROOT


##########                                Name:    ZINC000469435497
##########                DOCK_Rotatable_Bonds:                   6
##########                         Heavy_Atoms:                  27
##########                    Molecular_Weight:             364.444
##########                DOCK_Rotatable_Bonds:                   6
##########                       Formal_Charge:           0.0300001
##########                     HBond_Acceptors:                   5
##########                        HBond_Donors:                   2
##########                         Heavy_Atoms:                  27
##########                          Grid_Score:          -29.033806
##########                     Grid_vdw_energy:          -29.260017
##########                      Grid_es_energy:            0.226211
##########           Internal_energy_repulsive:            4.752366

@<TRIPOS>MOLECULE
ZINC000469435497
 51 54 1 0 0
SMALL
USER_CHARGES


@<TRIPOS>ATOM
      1 C1        -14.1379   -4.2625   56.8520 C.3     1  ZINC000469435497   -0.1600
      2 C2        -14.2072   -2.9194   57.5815 C.3     1  ZINC000469435497    0.1000
      3 C3        -15.1825   -2.9936   58.7579 C.3     1  ZINC000469435497   -0.1400
      4 C4        -12.8018   -2.4806   58.0563 C.3     1  ZINC000469435497   -0.1000
      5 C5        -12.3347   -1.6186   56.8993 C.ar    1  ZINC000469435497   -0.1500
      6 C6        -11.0919   -1.1455   56.5438 C.ar    1  ZINC000469435497   -0.0700
      7 C7        -10.9474   -0.3650   55.4032 C.ar    1  ZINC000469435497    0.1100
      8 N8         -9.6849    0.1192   55.0360 N.am    1  ZINC000469435497   -0.6600
      9 C9         -9.0289   -0.4309   53.9951 C.2     1  ZINC000469435497    0.5100
     10 O10        -9.5313   -1.3452   53.3764 O.2     1  ZINC000469435497   -0.5200
     11 C11        -7.6709    0.0898   53.6001 C.3     1  ZINC000469435497    0.1000
     12 N12        -7.8278    1.1760   52.6297 N.am    1  ZINC000469435497   -0.7200
     13 C13        -6.9885    2.2302   52.6568 C.2     1  ZINC000469435497    0.5700
     14 O14        -6.1024    2.2804   53.4873 O.2     1  ZINC000469435497   -0.5300
     15 C15        -7.1457    3.3256   51.6763 C.ar    1  ZINC000469435497   -0.1400
     16 C16        -6.1809    4.3297   51.5854 C.ar    1  ZINC000469435497   -0.0800
     17 C17        -6.3358    5.3471   50.6683 C.ar    1  ZINC000469435497   -0.1100
     18 C18        -7.4438    5.3789   49.8359 C.ar    1  ZINC000469435497   -0.0700
     19 C19        -7.8340    6.3755   48.7648 C.3     1  ZINC000469435497   -0.0900
     20 C20        -8.8989    5.6552   47.9110 C.3     1  ZINC000469435497   -0.1200
     21 C21        -9.5029    4.6491   48.9134 C.3     1  ZINC000469435497   -0.0800
     22 C22        -8.4043    4.3858   49.9213 C.ar    1  ZINC000469435497   -0.1100
     23 C23        -8.2563    3.3580   50.8330 C.ar    1  ZINC000469435497   -0.0400
     24 C24       -12.0611   -0.0680   54.6295 C.ar    1  ZINC000469435497   -0.1000
     25 C25       -13.3052   -0.5407   54.9911 C.ar    1  ZINC000469435497   -0.1200
     26 C26       -13.4559   -1.3206   56.1349 C.ar    1  ZINC000469435497    0.1000
     27 O27       -14.5805   -1.8668   56.6760 O.3     1  ZINC000469435497   -0.3000
     28 H28       -13.4156   -4.1973   56.0382 H       1  ZINC000469435497    0.0600
     29 H29       -13.8287   -5.0399   57.5507 H       1  ZINC000469435497    0.0800
     30 H30       -15.1200   -4.5074   56.4474 H       1  ZINC000469435497    0.0700
     31 H31       -14.8419   -3.7500   59.4651 H       1  ZINC000469435497    0.0800
     32 H32       -15.2262   -2.0247   59.2554 H       1  ZINC000469435497    0.0700
     33 H33       -16.1742   -3.2590   58.3916 H       1  ZINC000469435497    0.0700
     34 H34       -12.8656   -1.8979   58.9753 H       1  ZINC000469435497    0.0900
     35 H35       -12.1484   -3.3430   58.1882 H       1  ZINC000469435497    0.0900
     36 H36       -10.2301   -1.3802   57.1510 H       1  ZINC000469435497    0.1400
     37 H37        -9.2831    0.8504   55.5307 H       1  ZINC000469435497    0.4200
     38 H38        -7.1541    0.4639   54.4838 H       1  ZINC000469435497    0.1100
     39 H39        -7.0889   -0.7160   53.1527 H       1  ZINC000469435497    0.1100
     40 H40        -8.5357    1.1365   51.9677 H       1  ZINC000469435497    0.4100
     41 H41        -5.3158    4.3100   52.2317 H       1  ZINC000469435497    0.1300
     42 H42        -5.5893    6.1245   50.5981 H       1  ZINC000469435497    0.1300
     43 H43        -8.2560    7.2724   49.2183 H       1  ZINC000469435497    0.0900
     44 H44        -6.9687    6.6315   48.1531 H       1  ZINC000469435497    0.0800
     45 H45        -9.6564    6.3576   47.5631 H       1  ZINC000469435497    0.0800
     46 H46        -8.4362    5.1358   47.0719 H       1  ZINC000469435497    0.0700
     47 H47       -10.3728    5.0827   49.4067 H       1  ZINC000469435497    0.0800
     48 H48        -9.7774    3.7258   48.4034 H       1  ZINC000469435497    0.0800
     49 H49        -9.0033    2.5805   50.8952 H       1  ZINC000469435497    0.1400
     50 H50       -11.9529    0.5359   53.7407 H       1  ZINC000469435497    0.1400
     51 H51       -14.1668   -0.3050   54.3842 H       1  ZINC000469435497    0.1300
@<TRIPOS>BOND
     1     1     2    1
     2     1    28    1
     3     1    29    1
     4     1    30    1
     5     2    27    1
     6     2     3    1
     7     2     4    1
     8     3    31    1
     9     3    32    1
    10     3    33    1
    11     4     5    1
    12     4    34    1
    13     4    35    1
    14     5    26   ar
    15     5     6   ar
    16     6     7   ar
    17     6    36    1
    18     7     8    1
    19     7    24   ar
    20     8     9   am
    21     8    37    1
    22     9    10    2
    23     9    11    1
    24    11    12    1
    25    11    38    1
    26    11    39    1
    27    12    13   am
    28    12    40    1
    29    13    14    2
    30    13    15    1
    31    15    23   ar
    32    15    16   ar
    33    16    17   ar
    34    16    41    1
    35    17    18   ar
    36    17    42    1
    37    18    22   ar
    38    18    19    1
    39    19    20    1
    40    19    43    1
    41    19    44    1
    42    20    21    1
    43    20    45    1
    44    20    46    1
    45    21    22    1
    46    21    47    1
    47    21    48    1
    48    22    23   ar
    49    23    49    1
    50    24    25   ar
    51    24    50    1
    52    25    26   ar
    53    25    51    1
    54    26    27    1
@<TRIPOS>SUBSTRUCTURE
     1 ZINC000469435497        1 TEMP              0 ****  ****    0 ROOT


##########                                Name:    ZINC000007167963
##########                DOCK_Rotatable_Bonds:                   8
##########                         Heavy_Atoms:                  25
##########                    Molecular_Weight:             378.433
##########                DOCK_Rotatable_Bonds:                   8
##########                       Formal_Charge:        -1.01328e-06
##########                     HBond_Acceptors:                  10
##########                        HBond_Donors:                   3
##########                         Heavy_Atoms:                  25
##########                          Grid_Score:          -29.023626
##########                     Grid_vdw_energy:          -27.171991
##########                      Grid_es_energy:           -1.851635
##########           Internal_energy_repulsive:            5.848969

@<TRIPOS>MOLECULE
ZINC000007167963
 39 41 1 0 0
SMALL
USER_CHARGES


@<TRIPOS>ATOM
      1 C1        -10.6513    1.4986   65.5036 C.3     1  ZINC000007167963   -0.0800
      2 C2         -9.5554    0.8473   64.6998 C.2     1  ZINC000007167963    0.0900
      3 C3         -9.6955    0.2957   63.4635 C.2     1  ZINC000007167963   -0.1500
      4 C4        -10.9307    0.2176   62.6557 C.2     1  ZINC000007167963    0.2600
      5 N5        -12.1311    0.5815   63.0361 N.2     1  ZINC000007167963   -0.2700
      6 N6        -12.9646    0.3740   62.0784 N.2     1  ZINC000007167963   -0.2800
      7 C7        -12.3295   -0.1308   61.0479 C.2     1  ZINC000007167963    0.1200
      8 S8        -13.0436   -0.5811   59.5013 S.3     1  ZINC000007167963    0.1500
      9 C9        -11.8986   -1.8885   58.9953 C.3     1  ZINC000007167963   -0.1200
     10 H10       -11.5570   -2.4331   59.8755 H       1  ZINC000007167963    0.1400
     11 C11       -12.6124   -2.8518   58.0448 C.3     1  ZINC000007167963   -0.1500
     12 C12       -10.7145   -1.2752   58.2932 C.2     1  ZINC000007167963    0.5300
     13 O13        -9.5908   -1.6383   58.5697 O.2     1  ZINC000007167963   -0.4900
     14 N14       -10.9043   -0.3234   57.3580 N.am    1  ZINC000007167963   -0.6100
     15 C15        -9.8149    0.2396   56.7108 C.2     1  ZINC000007167963    0.0800
     16 C16        -9.4370   -0.0499   55.4254 C.2     1  ZINC000007167963   -0.2400
     17 C17       -10.1470   -1.0023   54.5659 C.2     1  ZINC000007167963    0.5900
     18 N18       -11.1918   -0.5892   53.8215 N.am    1  ZINC000007167963   -0.8400
     19 O19        -9.7929   -2.1660   54.5247 O.2     1  ZINC000007167963   -0.5600
     20 C20        -8.2636    0.6850   55.0069 C.2     1  ZINC000007167963   -0.0900
     21 C21        -7.7893    1.4894   55.9476 C.2     1  ZINC000007167963   -0.2800
     22 S22        -8.7662    1.3919   57.4018 S.3     1  ZINC000007167963    0.3000
     23 O23       -11.0296   -0.2365   61.3869 O.3     1  ZINC000007167963   -0.2000
     24 C24        -8.3639   -0.2051   63.0984 C.2     1  ZINC000007167963   -0.1800
     25 C25        -7.5608    0.0882   64.1341 C.2     1  ZINC000007167963   -0.0300
     26 O26        -8.2759    0.7180   65.0786 O.3     1  ZINC000007167963   -0.1700
     27 H27       -10.2452    1.8533   66.4509 H       1  ZINC000007167963    0.0800
     28 H28       -11.0598    2.3409   64.9453 H       1  ZINC000007167963    0.1000
     29 H29       -11.4412    0.7727   65.6960 H       1  ZINC000007167963    0.1000
     30 H30       -13.4689   -3.2953   58.5526 H       1  ZINC000007167963    0.0900
     31 H31       -12.9540   -2.3072   57.1646 H       1  ZINC000007167963    0.0800
     32 H32       -11.9230   -3.6391   57.7402 H       1  ZINC000007167963    0.0800
     33 H33       -11.8030   -0.0323   57.1378 H       1  ZINC000007167963    0.4400
     34 H34       -11.6622   -1.2196   53.2538 H       1  ZINC000007167963    0.4000
     35 H35       -11.4734    0.3385   53.8533 H       1  ZINC000007167963    0.4100
     36 H36        -7.8186    0.5877   54.0277 H       1  ZINC000007167963    0.1500
     37 H37        -6.9215    2.1220   55.8330 H       1  ZINC000007167963    0.1700
     38 H38        -8.0871   -0.7077   62.1834 H       1  ZINC000007167963    0.1600
     39 H39        -6.5074   -0.1422   64.1950 H       1  ZINC000007167963    0.2200
@<TRIPOS>BOND
     1     1     2    1
     2     1    27    1
     3     1    28    1
     4     1    29    1
     5     2    26    1
     6     2     3    2
     7     3     4    1
     8     3    24    1
     9     4    23    1
    10     4     5    2
    11     5     6    1
    12     6     7    2
    13     7     8    1
    14     7    23    1
    15     8     9    1
    16     9    10    1
    17     9    11    1
    18     9    12    1
    19    11    30    1
    20    11    31    1
    21    11    32    1
    22    12    13    2
    23    12    14   am
    24    14    15    1
    25    14    33    1
    26    15    22    1
    27    15    16    2
    28    16    17    1
    29    16    20    1
    30    17    18   am
    31    17    19    2
    32    18    34    1
    33    18    35    1
    34    20    21    2
    35    20    36    1
    36    21    22    1
    37    21    37    1
    38    24    25    2
    39    24    38    1
    40    25    26    1
    41    25    39    1
@<TRIPOS>SUBSTRUCTURE
     1 ZINC000007167963        1 TEMP              0 ****  ****    0 ROOT


##########                                Name:    ZINC000541252362
##########                DOCK_Rotatable_Bonds:                   5
##########                         Heavy_Atoms:                  27
##########                    Molecular_Weight:             401.254
##########                DOCK_Rotatable_Bonds:                   5
##########                       Formal_Charge:          -0.0199999
##########                     HBond_Acceptors:                   9
##########                        HBond_Donors:                   1
##########                         Heavy_Atoms:                  27
##########                          Grid_Score:          -29.018801
##########                     Grid_vdw_energy:          -25.086740
##########                      Grid_es_energy:           -3.932060
##########           Internal_energy_repulsive:            4.421713

@<TRIPOS>MOLECULE
ZINC000541252362
 41 44 1 0 0
SMALL
USER_CHARGES


@<TRIPOS>ATOM
      1 C1        -11.8718    3.3291   50.0946 C.3     1  ZINC000541252362    0.1000
      2 N2        -10.4371    3.5807   49.9369 N.pl3   1  ZINC000541252362   -0.3800
      3 C3         -9.7917    3.8697   48.7925 C.2     1  ZINC000541252362    0.2600
      4 N4         -8.5233    4.0256   49.0650 N.2     1  ZINC000541252362   -0.5300
      5 C5         -8.3155    3.8442   50.3761 C.2     1  ZINC000541252362    0.2700
      6 C6         -7.0048    3.9394   51.0655 C.ar    1  ZINC000541252362    0.0000
      7 C7         -5.8768    4.3638   50.3661 C.ar    1  ZINC000541252362   -0.1000
      8 C8         -4.6579    4.4523   51.0089 C.ar    1  ZINC000541252362   -0.1000
      9 C9         -4.5518    4.1207   52.3461 C.ar    1  ZINC000541252362   -0.1300
     10 C10        -5.6715    3.6966   53.0514 C.ar    1  ZINC000541252362    0.1400
     11 N11        -5.5603    3.3615   54.4056 N.am    1  ZINC000541252362   -0.6800
     12 C12        -6.0009    4.2164   55.3498 C.2     1  ZINC000541252362    0.5100
     13 O13        -6.4938    5.2762   55.0259 O.2     1  ZINC000541252362   -0.4900
     14 C14        -5.8811    3.8556   56.8080 C.3     1  ZINC000541252362   -0.0600
     15 C15        -6.9047    2.8041   57.1511 C.2     1  ZINC000541252362    0.0700
     16 C16        -7.2835    2.4500   58.3989 C.2     1  ZINC000541252362   -0.0700
     17 N17        -8.2267    1.4672   58.2714 N.pl3   1  ZINC000541252362   -0.3500
     18 C18        -8.9439    0.7509   59.1868 C.2     1  ZINC000541252362    0.0700
     19 C19        -9.8317   -0.1841   58.7857 C.2     1  ZINC000541252362   -0.0500
     20 Cl20      -10.7328   -1.0831   59.9661 Cl      1  ZINC000541252362   -0.0200
     21 C21       -10.0298   -0.4322   57.4166 C.2     1  ZINC000541252362   -0.0900
     22 C22        -9.3217    0.2750   56.4941 C.2     1  ZINC000541252362    0.0200
     23 Cl23       -9.5533   -0.0172   54.7986 Cl      1  ZINC000541252362   -0.0100
     24 C24        -8.3980    1.2477   56.9296 C.2     1  ZINC000541252362    0.2200
     25 N25        -7.5928    2.0712   56.2728 N.2     1  ZINC000541252362   -0.4300
     26 C26        -6.9000    3.6105   52.4145 C.ar    1  ZINC000541252362   -0.0800
     27 N27        -9.4664    3.5737   50.9518 N.2     1  ZINC000541252362   -0.3100
     28 H28       -12.3859    4.2696   50.2926 H       1  ZINC000541252362    0.0800
     29 H29       -12.2654    2.8854   49.1801 H       1  ZINC000541252362    0.0900
     30 H30       -12.0312    2.6452   50.9282 H       1  ZINC000541252362    0.0900
     31 H31       -10.2444    3.9575   47.8159 H       1  ZINC000541252362    0.2200
     32 H32        -5.9558    4.6231   49.3206 H       1  ZINC000541252362    0.1300
     33 H33        -3.7848    4.7814   50.4649 H       1  ZINC000541252362    0.1300
     34 H34        -3.5962    4.1909   52.8443 H       1  ZINC000541252362    0.1300
     35 H35        -5.1661    2.5139   54.6646 H       1  ZINC000541252362    0.4100
     36 H36        -4.8817    3.4678   57.0054 H       1  ZINC000541252362    0.1200
     37 H37        -6.0534    4.7428   57.4173 H       1  ZINC000541252362    0.1200
     38 H38        -6.9108    2.8647   59.3239 H       1  ZINC000541252362    0.1900
     39 H39        -8.7993    0.9338   60.2414 H       1  ZINC000541252362    0.1800
     40 H40       -10.7402   -1.1808   57.0979 H       1  ZINC000541252362    0.1600
     41 H41        -7.7716    3.2815   52.9609 H       1  ZINC000541252362    0.1500
@<TRIPOS>BOND
     1     1     2    1
     2     1    28    1
     3     1    29    1
     4     1    30    1
     5     2    27    1
     6     2     3    1
     7     3     4    2
     8     3    31    1
     9     4     5    1
    10     5     6    1
    11     5    27    2
    12     6    26   ar
    13     6     7   ar
    14     7     8   ar
    15     7    32    1
    16     8     9   ar
    17     8    33    1
    18     9    10   ar
    19     9    34    1
    20    10    11    1
    21    10    26   ar
    22    11    12   am
    23    11    35    1
    24    12    13    2
    25    12    14    1
    26    14    15    1
    27    14    36    1
    28    14    37    1
    29    15    25    1
    30    15    16    2
    31    16    17    1
    32    16    38    1
    33    17    24    1
    34    17    18    1
    35    18    19    2
    36    18    39    1
    37    19    20    1
    38    19    21    1
    39    21    22    2
    40    21    40    1
    41    22    23    1
    42    22    24    1
    43    24    25    2
    44    26    41    1
@<TRIPOS>SUBSTRUCTURE
     1 ZINC000541252362        1 TEMP              0 ****  ****    0 ROOT


##########                                Name:    ZINC000022858610
##########                DOCK_Rotatable_Bonds:                   9
##########                         Heavy_Atoms:                  26
##########                    Molecular_Weight:             369.343
##########                DOCK_Rotatable_Bonds:                   9
##########                       Formal_Charge:          0.00999956
##########                     HBond_Acceptors:                   9
##########                        HBond_Donors:                   2
##########                         Heavy_Atoms:                  26
##########                          Grid_Score:          -28.967482
##########                     Grid_vdw_energy:          -28.081144
##########                      Grid_es_energy:           -0.886337
##########           Internal_energy_repulsive:           17.345312

@<TRIPOS>MOLECULE
ZINC000022858610
 44 45 1 0 0
SMALL
USER_CHARGES


@<TRIPOS>ATOM
      1 C1         -8.7353    1.7944   62.8225 C.3     1  <0>         0.0100
      2 N2         -8.7126    0.4364   62.2631 N.3     1  <0>        -0.5300
      3 C3         -9.2033   -0.5441   63.2408 C.3     1  <0>         0.0200
      4 C4         -9.4855    0.3678   61.0157 C.3     1  <0>         0.1500
      5 H5        -10.5242    0.6295   61.2170 H       1  <0>         0.1200
      6 C6         -9.4177   -1.0527   60.4513 C.3     1  <0>         0.1300
      7 N7         -9.6774   -1.0185   59.0100 N.am    1  <0>        -0.6800
      8 C8        -10.2960   -2.0557   58.4118 C.2     1  <0>         0.5100
      9 O9        -10.6393   -3.0175   59.0674 O.2     1  <0>        -0.5100
     10 C10       -10.5591   -2.0215   56.9421 C.2     1  <0>         0.5200
     11 O11       -10.7427   -3.0559   56.3341 O.2     1  <0>        -0.4900
     12 N12       -10.5928   -0.8420   56.2907 N.am    1  <0>        -0.6500
     13 C13       -10.8390   -0.8101   54.9156 C.ar    1  <0>         0.1900
     14 C14        -9.7976   -1.0049   54.0173 C.ar    1  <0>        -0.1200
     15 C15       -10.0445   -0.9726   52.6587 C.ar    1  <0>        -0.0700
     16 C16       -11.3267   -0.7468   52.1927 C.ar    1  <0>        -0.1300
     17 C17       -12.3658   -0.5520   53.0844 C.ar    1  <0>        -0.0500
     18 C18       -12.1272   -0.5891   54.4439 C.ar    1  <0>        -0.2100
     19 C19       -13.2600   -0.3768   55.4148 C.3     1  <0>         0.5100
     20 F20       -13.5064   -1.5650   56.1109 F       1  <0>        -0.1700
     21 F21       -12.9148    0.6316   56.3209 F       1  <0>        -0.1800
     22 F22       -14.4106    0.0001   54.7137 F       1  <0>        -0.1700
     23 C23        -8.9088    1.3344   60.0137 C.2     1  <0>        -0.0500
     24 C24        -9.4027    2.5506   59.7196 C.2     1  <0>        -0.1900
     25 C25        -8.5566    3.1089   58.7342 C.2     1  <0>        -0.2100
     26 C26        -7.5963    2.2007   58.4849 C.2     1  <0>        -0.0400
     27 O27        -7.8113    1.1302   59.2670 O.3     1  <0>        -0.1700
     28 H28        -8.0106    1.8655   63.6335 H       1  <0>         0.0700
     29 H29        -8.4803    2.5127   62.0433 H       1  <0>         0.0700
     30 H30        -9.7321    2.0128   63.2058 H       1  <0>         0.0500
     31 H31       -10.2279   -0.2979   63.5194 H       1  <0>         0.0300
     32 H32        -9.1758   -1.5410   62.8009 H       1  <0>         0.0700
     33 H33        -8.5701   -0.5208   64.1278 H       1  <0>         0.0800
     34 H34        -8.4264   -1.4687   60.6321 H       1  <0>         0.0900
     35 H35       -10.1673   -1.6744   60.9409 H       1  <0>         0.0800
     36 H36        -9.4041   -0.2492   58.4861 H       1  <0>         0.4200
     37 H37       -10.4461   -0.0154   56.7765 H       1  <0>         0.4300
     38 H38        -8.7959   -1.1810   54.3806 H       1  <0>         0.1500
     39 H39        -9.2353   -1.1237   51.9596 H       1  <0>         0.1400
     40 H40       -11.5169   -0.7221   51.1298 H       1  <0>         0.1400
     41 H41       -13.3658   -0.3751   52.7170 H       1  <0>         0.1500
     42 H42       -10.2780    3.0117   60.1528 H       1  <0>         0.1500
     43 H43        -8.6614    4.0786   58.2702 H       1  <0>         0.1500
     44 H44        -6.7871    2.3146   57.7787 H       1  <0>         0.2000
@<TRIPOS>BOND
     1     1     2    1
     2     1    28    1
     3     1    29    1
     4     1    30    1
     5     2     3    1
     6     2     4    1
     7     3    31    1
     8     3    32    1
     9     3    33    1
    10     4     5    1
    11     4     6    1
    12     4    23    1
    13     6     7    1
    14     6    34    1
    15     6    35    1
    16     7     8   am
    17     7    36    1
    18     8     9    2
    19     8    10    1
    20    10    11    2
    21    10    12   am
    22    12    13    1
    23    12    37    1
    24    13    18   ar
    25    13    14   ar
    26    14    15   ar
    27    14    38    1
    28    15    16   ar
    29    15    39    1
    30    16    17   ar
    31    16    40    1
    32    17    18   ar
    33    17    41    1
    34    18    19    1
    35    19    20    1
    36    19    21    1
    37    19    22    1
    38    23    27    1
    39    23    24    2
    40    24    25    1
    41    24    42    1
    42    25    26    2
    43    25    43    1
    44    26    27    1
    45    26    44    1
@<TRIPOS>SUBSTRUCTURE
     1 <0>         1 TEMP              0 ****  ****    0 ROOT


##########                                Name:    ZINC000011498449
##########                DOCK_Rotatable_Bonds:                   5
##########                         Heavy_Atoms:                  21
##########                    Molecular_Weight:             331.198
##########                DOCK_Rotatable_Bonds:                   5
##########                       Formal_Charge:         1.30385e-07
##########                     HBond_Acceptors:                   7
##########                        HBond_Donors:                   1
##########                         Heavy_Atoms:                  21
##########                          Grid_Score:          -28.959879
##########                     Grid_vdw_energy:          -26.617617
##########                      Grid_es_energy:           -2.342262
##########           Internal_energy_repulsive:           57.436138

@<TRIPOS>MOLECULE
ZINC000011498449
 37 38 1 0 0
SMALL
USER_CHARGES


@<TRIPOS>ATOM
      1 C1        -10.1782    4.6587   63.6460 C.3     1  ZINC000011498449   -0.1500
      2 C2         -9.7868    3.5976   64.6766 C.3     1  ZINC000011498449    0.0700
      3 H3         -8.7931    3.8181   65.0665 H       1  ZINC000011498449    0.0600
      4 C4         -9.7813    2.2161   64.0123 C.3     1  ZINC000011498449    0.0800
      5 N5         -9.5877    1.1991   65.0580 N.am    1  ZINC000011498449   -0.6100
      6 C6         -8.6420    0.2471   64.9333 C.2     1  ZINC000011498449    0.5100
      7 O7         -8.4989   -0.5834   65.8055 O.2     1  ZINC000011498449   -0.5300
      8 C8         -7.7624    0.2145   63.7101 C.3     1  ZINC000011498449    0.1000
      9 N9         -8.4162   -0.5694   62.6592 N.am    1  ZINC000011498449   -0.7200
     10 C10        -9.1619    0.0493   61.7222 C.2     1  ZINC000011498449    0.5600
     11 O11        -9.2907    1.2578   61.7482 O.2     1  ZINC000011498449   -0.5100
     12 C12        -9.8225   -0.7413   60.6637 C.ar    1  ZINC000011498449   -0.1300
     13 C13       -10.8676   -1.6094   60.9859 C.ar    1  ZINC000011498449   -0.0600
     14 C14       -11.4807   -2.3442   59.9935 C.ar    1  ZINC000011498449   -0.1100
     15 C15       -11.0626   -2.2233   58.6783 C.ar    1  ZINC000011498449    0.0000
     16 Cl16      -11.8407   -3.1521   57.4351 Cl      1  ZINC000011498449   -0.0400
     17 C17       -10.0269   -1.3645   58.3510 C.ar    1  ZINC000011498449   -0.1100
     18 C18        -9.4081   -0.6190   59.3345 C.ar    1  ZINC000011498449    0.0300
     19 Cl19       -8.1098    0.4574   58.9231 Cl      1  ZINC000011498449   -0.0100
     20 C20       -10.4570    1.2526   66.2442 C.3     1  ZINC000011498449    0.0700
     21 C21       -10.4295    2.6810   66.7997 C.3     1  ZINC000011498449    0.0500
     22 O22       -10.7323    3.6017   65.7489 O.3     1  ZINC000011498449   -0.3700
     23 H23       -10.1837    5.6405   64.1195 H       1  ZINC000011498449    0.0700
     24 H24        -9.4580    4.6537   62.8280 H       1  ZINC000011498449    0.0800
     25 H25       -11.1720    4.4376   63.2565 H       1  ZINC000011498449    0.0700
     26 H26       -10.7328    2.0475   63.5079 H       1  ZINC000011498449    0.0800
     27 H27        -8.9671    2.1594   63.2898 H       1  ZINC000011498449    0.1000
     28 H28        -7.5964    1.2315   63.3546 H       1  ZINC000011498449    0.1000
     29 H29        -6.8057   -0.2429   63.9625 H       1  ZINC000011498449    0.1000
     30 H30        -8.3125   -1.5336   62.6377 H       1  ZINC000011498449    0.4100
     31 H31       -11.1948   -1.7053   62.0106 H       1  ZINC000011498449    0.1500
     32 H32       -12.2889   -3.0162   60.2420 H       1  ZINC000011498449    0.1500
     33 H33        -9.7054   -1.2746   57.3239 H       1  ZINC000011498449    0.1500
     34 H34       -11.4764    0.9870   65.9646 H       1  ZINC000011498449    0.0900
     35 H35       -10.0902    0.5577   66.9998 H       1  ZINC000011498449    0.1000
     36 H36       -11.1708    2.7775   67.5930 H       1  ZINC000011498449    0.1100
     37 H37        -9.4384    2.8977   67.1982 H       1  ZINC000011498449    0.0600
@<TRIPOS>BOND
     1     1     2    1
     2     1    23    1
     3     1    24    1
     4     1    25    1
     5     2     3    1
     6     2    22    1
     7     2     4    1
     8     4     5    1
     9     4    26    1
    10     4    27    1
    11     5     6   am
    12     5    20    1
    13     6     7    2
    14     6     8    1
    15     8     9    1
    16     8    28    1
    17     8    29    1
    18     9    10   am
    19     9    30    1
    20    10    11    2
    21    10    12    1
    22    12    18   ar
    23    12    13   ar
    24    13    14   ar
    25    13    31    1
    26    14    15   ar
    27    14    32    1
    28    15    16    1
    29    15    17   ar
    30    17    18   ar
    31    17    33    1
    32    18    19    1
    33    20    21    1
    34    20    34    1
    35    20    35    1
    36    21    22    1
    37    21    36    1
    38    21    37    1
@<TRIPOS>SUBSTRUCTURE
     1 ZINC000011498449        1 TEMP              0 ****  ****    0 ROOT


##########                                Name:    ZINC000187810810
##########                DOCK_Rotatable_Bonds:                   7
##########                         Heavy_Atoms:                  27
##########                    Molecular_Weight:             386.414
##########                DOCK_Rotatable_Bonds:                   7
##########                       Formal_Charge:           0.0599998
##########                     HBond_Acceptors:                   8
##########                        HBond_Donors:                   1
##########                         Heavy_Atoms:                  27
##########                          Grid_Score:          -28.949150
##########                     Grid_vdw_energy:          -27.485254
##########                      Grid_es_energy:           -1.463895
##########           Internal_energy_repulsive:           41.523823

@<TRIPOS>MOLECULE
ZINC000187810810
 52 53 1 0 0
SMALL
USER_CHARGES


@<TRIPOS>ATOM
      1 C1         -8.7337   -0.1703   64.5627 C.3     1  ZINC000187810810   -0.1800
      2 C2         -9.6472    0.7654   63.7683 C.3     1  ZINC000187810810    0.1400
      3 C3        -10.4152    1.6697   64.7343 C.3     1  ZINC000187810810   -0.1800
      4 C4         -8.8015    1.6259   62.8274 C.3     1  ZINC000187810810   -0.1400
      5 O5        -10.5875   -0.0214   62.9907 O.3     1  ZINC000187810810   -0.3600
      6 C6        -11.1600    0.5813   61.9316 C.2     1  ZINC000187810810    0.6500
      7 O7        -11.9074    1.5246   62.1002 O.2     1  ZINC000187810810   -0.5600
      8 N8        -10.9043    0.1386   60.6847 N.am    1  ZINC000187810810   -0.6000
      9 C9        -11.5153    0.7912   59.5187 C.3     1  ZINC000187810810    0.1100
     10 C10       -12.2295   -0.2712   58.6771 C.3     1  ZINC000187810810   -0.1400
     11 C11       -11.2425   -1.3874   58.3273 C.3     1  ZINC000187810810    0.1800
     12 C12       -11.9432   -2.4332   57.4577 C.3     1  ZINC000187810810   -0.1600
     13 N13       -10.1077   -0.8229   57.5927 N.am    1  ZINC000187810810   -0.7100
     14 C14       -10.3137   -0.1717   56.4308 C.2     1  ZINC000187810810    0.5500
     15 O15       -11.4411   -0.0541   55.9917 O.2     1  ZINC000187810810   -0.5100
     16 C16        -9.1686    0.3995   55.6903 C.ar    1  ZINC000187810810   -0.0900
     17 C17        -8.3906    1.4036   56.2686 C.ar    1  ZINC000187810810   -0.0900
     18 C18        -7.3231    1.9320   55.5723 C.ar    1  ZINC000187810810   -0.0900
     19 C19        -7.0235    1.4691   54.3035 C.ar    1  ZINC000187810810   -0.0900
     20 C20        -7.7912    0.4741   53.7242 C.ar    1  ZINC000187810810   -0.0800
     21 C21        -8.8574   -0.0671   54.4120 C.ar    1  ZINC000187810810   -0.1300
     22 C22        -9.6921   -1.1509   53.7798 C.3     1  ZINC000187810810    0.5200
     23 F23       -10.9144   -0.6139   53.3616 F       1  ZINC000187810810   -0.1800
     24 F24        -9.0129   -1.6790   52.6766 F       1  ZINC000187810810   -0.1600
     25 F25        -9.9240   -2.1659   54.7142 F       1  ZINC000187810810   -0.1600
     26 C26       -10.7397   -2.0475   59.6132 C.3     1  ZINC000187810810   -0.1500
     27 C27       -10.0043   -1.0018   60.4650 C.3     1  ZINC000187810810    0.1300
     28 H28        -9.3361   -0.7833   65.2331 H       1  ZINC000187810810    0.0900
     29 H29        -8.1865   -0.8144   63.8745 H       1  ZINC000187810810    0.0600
     30 H30        -8.0277    0.4205   65.1465 H       1  ZINC000187810810    0.0700
     31 H31        -9.7092    2.2604   65.3181 H       1  ZINC000187810810    0.0700
     32 H32       -11.0659    2.3364   64.1684 H       1  ZINC000187810810    0.0600
     33 H33       -11.0176    1.0567   65.4048 H       1  ZINC000187810810    0.0900
     34 H34        -8.2544    0.9817   62.1391 H       1  ZINC000187810810    0.0700
     35 H35        -9.4523    2.2925   62.2614 H       1  ZINC000187810810    0.0700
     36 H36        -8.0956    2.2166   63.4111 H       1  ZINC000187810810    0.0800
     37 H37       -12.2359    1.5373   59.8534 H       1  ZINC000187810810    0.1000
     38 H38       -10.7405    1.2709   58.9207 H       1  ZINC000187810810    0.0700
     39 H39       -13.0618   -0.6863   59.2453 H       1  ZINC000187810810    0.0900
     40 H40       -12.6049    0.1830   57.7602 H       1  ZINC000187810810    0.0900
     41 H41       -12.3003   -1.9635   56.5413 H       1  ZINC000187810810    0.0600
     42 H42       -11.2404   -3.2283   57.2085 H       1  ZINC000187810810    0.0800
     43 H43       -12.7879   -2.8530   58.0039 H       1  ZINC000187810810    0.0700
     44 H44        -9.2079   -0.9178   57.9426 H       1  ZINC000187810810    0.4000
     45 H45        -8.6239    1.7662   57.2588 H       1  ZINC000187810810    0.1400
     46 H46        -6.7203    2.7091   56.0187 H       1  ZINC000187810810    0.1400
     47 H47        -6.1871    1.8864   53.7626 H       1  ZINC000187810810    0.1400
     48 H48        -7.5523    0.1174   52.7333 H       1  ZINC000187810810    0.1500
     49 H49       -11.5861   -2.4459   60.1726 H       1  ZINC000187810810    0.0800
     50 H50       -10.0548   -2.8576   59.3625 H       1  ZINC000187810810    0.1000
     51 H51        -9.1068   -0.6705   59.9425 H       1  ZINC000187810810    0.0700
     52 H52        -9.7302   -1.4396   61.4249 H       1  ZINC000187810810    0.1000
@<TRIPOS>BOND
     1     1     2    1
     2     1    28    1
     3     1    29    1
     4     1    30    1
     5     2     3    1
     6     2     4    1
     7     2     5    1
     8     3    31    1
     9     3    32    1
    10     3    33    1
    11     4    34    1
    12     4    35    1
    13     4    36    1
    14     5     6    1
    15     6     7    2
    16     6     8   am
    17     8    27    1
    18     8     9    1
    19     9    10    1
    20     9    37    1
    21     9    38    1
    22    10    11    1
    23    10    39    1
    24    10    40    1
    25    11    12    1
    26    11    13    1
    27    11    26    1
    28    12    41    1
    29    12    42    1
    30    12    43    1
    31    13    14   am
    32    13    44    1
    33    14    15    2
    34    14    16    1
    35    16    21   ar
    36    16    17   ar
    37    17    18   ar
    38    17    45    1
    39    18    19   ar
    40    18    46    1
    41    19    20   ar
    42    19    47    1
    43    20    21   ar
    44    20    48    1
    45    21    22    1
    46    22    23    1
    47    22    24    1
    48    22    25    1
    49    26    27    1
    50    26    49    1
    51    26    50    1
    52    27    51    1
    53    27    52    1
@<TRIPOS>SUBSTRUCTURE
     1 ZINC000187810810        1 TEMP              0 ****  ****    0 ROOT


##########                                Name:    ZINC001077846158
##########                DOCK_Rotatable_Bonds:                   7
##########                         Heavy_Atoms:                  24
##########                    Molecular_Weight:             350.442
##########                DOCK_Rotatable_Bonds:                   7
##########                       Formal_Charge:          -0.0600002
##########                     HBond_Acceptors:                   8
##########                        HBond_Donors:                   2
##########                         Heavy_Atoms:                  24
##########                          Grid_Score:          -28.942818
##########                     Grid_vdw_energy:          -29.344728
##########                      Grid_es_energy:            0.401911
##########           Internal_energy_repulsive:            8.484537

@<TRIPOS>MOLECULE
ZINC001077846158
 46 48 1 0 0
SMALL
USER_CHARGES


@<TRIPOS>ATOM
      1 C1         -8.9554   -0.7682   52.2087 C.3     1  ZINC001077846158   -0.0700
      2 C2         -8.6700   -0.1139   53.5360 C.2     1  ZINC001077846158    0.0100
      3 C3         -9.2643   -0.4018   54.7058 C.2     1  ZINC001077846158   -0.0500
      4 C4        -10.3365   -1.4359   54.9346 C.3     1  ZINC001077846158    0.1300
      5 N5        -11.1157   -1.0776   56.1273 N.3     1  ZINC001077846158   -0.5100
      6 C6        -12.3355   -1.9177   56.2383 C.3     1  ZINC001077846158    0.0000
      7 C7        -12.7171   -1.7926   57.7348 C.3     1  ZINC001077846158    0.1000
      8 H8        -13.2572   -0.8640   57.9188 H       1  ZINC001077846158    0.0800
      9 O9        -13.4916   -2.9176   58.1549 O.3     1  ZINC001077846158   -0.5600
     10 C10       -11.3424   -1.7753   58.4418 C.3     1  ZINC001077846158    0.1400
     11 H11       -11.0896   -2.7724   58.8021 H       1  ZINC001077846158    0.1100
     12 N12       -11.3545   -0.8216   59.5538 N.am    1  ZINC001077846158   -0.7000
     13 C13       -10.5060   -0.9821   60.5885 C.2     1  ZINC001077846158    0.6000
     14 O14        -9.7310   -1.9195   60.5997 O.2     1  ZINC001077846158   -0.5300
     15 C15       -10.5169   -0.0225   61.7055 C.2     1  ZINC001077846158    0.0100
     16 C16       -11.5344    0.8391   61.9299 C.2     1  ZINC001077846158   -0.2300
     17 S17       -11.1693    1.7760   63.3123 S.3     1  ZINC001077846158    0.2300
     18 C18        -9.6801    0.9640   63.5109 C.2     1  ZINC001077846158    0.0300
     19 C19        -8.6887    1.2460   64.6103 C.3     1  ZINC001077846158   -0.0200
     20 C20        -9.4391    1.5377   65.9113 C.3     1  ZINC001077846158   -0.1500
     21 C21        -7.7835    0.0280   64.8055 C.3     1  ZINC001077846158   -0.1500
     22 N22        -9.5250    0.0742   62.5948 N.2     1  ZINC001077846158   -0.4500
     23 C23       -10.3403   -1.3274   57.3618 C.3     1  ZINC001077846158    0.0300
     24 O24        -8.7213    0.4076   55.6361 O.3     1  ZINC001077846158   -0.2100
     25 C25        -7.8077    1.1750   55.0270 C.2     1  ZINC001077846158    0.1800
     26 N26        -7.7705    0.8593   53.7639 N.2     1  ZINC001077846158   -0.4900
     27 H27        -8.3061   -1.6348   52.0838 H       1  ZINC001077846158    0.0800
     28 H28        -9.9972   -1.0873   52.1774 H       1  ZINC001077846158    0.0700
     29 H29        -8.7692   -0.0559   51.4050 H       1  ZINC001077846158    0.0700
     30 H30       -10.9960   -1.4735   54.0676 H       1  ZINC001077846158    0.0600
     31 H31        -9.8743   -2.4119   55.0822 H       1  ZINC001077846158    0.1100
     32 H32       -13.1311   -1.5264   55.6044 H       1  ZINC001077846158    0.0900
     33 H33       -12.1134   -2.9539   55.9832 H       1  ZINC001077846158    0.0600
     34 H34       -12.9834   -3.7362   58.2375 H       1  ZINC001077846158    0.3900
     35 H35       -11.9733   -0.0746   59.5454 H       1  ZINC001077846158    0.4100
     36 H36       -12.4310    0.9219   61.3335 H       1  ZINC001077846158    0.1900
     37 H37        -8.0818    2.1100   64.3393 H       1  ZINC001077846158    0.1000
     38 H38       -10.0839    2.4054   65.7721 H       1  ZINC001077846158    0.0600
     39 H39       -10.0460    0.6738   66.1823 H       1  ZINC001077846158    0.0600
     40 H40        -8.7219    1.7417   66.7064 H       1  ZINC001077846158    0.0700
     41 H41        -7.2490   -0.1798   63.8787 H       1  ZINC001077846158    0.0600
     42 H42        -7.0665    0.2320   65.6008 H       1  ZINC001077846158    0.0700
     43 H43        -8.3905   -0.8360   65.0765 H       1  ZINC001077846158    0.0600
     44 H44        -9.6067   -2.1143   57.1866 H       1  ZINC001077846158    0.0600
     45 H45        -9.8390   -0.4123   57.6769 H       1  ZINC001077846158    0.0900
     46 H46        -7.1991    1.9283   55.5053 H       1  ZINC001077846158    0.2500
@<TRIPOS>BOND
     1     1     2    1
     2     1    27    1
     3     1    28    1
     4     1    29    1
     5     2    26    1
     6     2     3    2
     7     3     4    1
     8     3    24    1
     9     4     5    1
    10     4    30    1
    11     4    31    1
    12     5    23    1
    13     5     6    1
    14     6     7    1
    15     6    32    1
    16     6    33    1
    17     7     8    1
    18     7     9    1
    19     7    10    1
    20     9    34    1
    21    10    11    1
    22    10    12    1
    23    10    23    1
    24    12    13   am
    25    12    35    1
    26    13    14    2
    27    13    15    1
    28    15    22    1
    29    15    16    2
    30    16    17    1
    31    16    36    1
    32    17    18    1
    33    18    19    1
    34    18    22    2
    35    19    20    1
    36    19    21    1
    37    19    37    1
    38    20    38    1
    39    20    39    1
    40    20    40    1
    41    21    41    1
    42    21    42    1
    43    21    43    1
    44    23    44    1
    45    23    45    1
    46    24    25    1
    47    25    26    2
    48    25    46    1
@<TRIPOS>SUBSTRUCTURE
     1 ZINC001077846158        1 TEMP              0 ****  ****    0 ROOT


##########                                Name:    ZINC001310073555
##########                DOCK_Rotatable_Bonds:                  12
##########                         Heavy_Atoms:                  27
##########                    Molecular_Weight:             380.484
##########                DOCK_Rotatable_Bonds:                  12
##########                       Formal_Charge:          0.00999888
##########                     HBond_Acceptors:                   7
##########                        HBond_Donors:                   2
##########                         Heavy_Atoms:                  27
##########                          Grid_Score:          -28.938131
##########                     Grid_vdw_energy:          -28.977551
##########                      Grid_es_energy:            0.039419
##########           Internal_energy_repulsive:           44.577499

@<TRIPOS>MOLECULE
ZINC001310073555
 59 59 1 0 0
SMALL
USER_CHARGES


@<TRIPOS>ATOM
      1 C1         -8.7255   -0.4607   61.3972 C.3     1  ZINC001310073555   -0.1600
      2 C2         -8.7143    0.1407   59.9904 C.3     1  ZINC001310073555   -0.1100
      3 C3         -9.9921    0.9536   59.7731 C.3     1  ZINC001310073555   -0.0600
      4 C4        -10.2262    1.8675   60.9777 C.3     1  ZINC001310073555   -0.1100
      5 C5        -11.3808    2.8246   60.6749 C.3     1  ZINC001310073555   -0.1600
      6 C6         -9.8474    1.8031   58.5089 C.3     1  ZINC001310073555    0.1600
      7 N7         -8.8288    1.2122   57.6376 N.am    1  ZINC001310073555   -0.7400
      8 C8         -8.6527    1.6870   56.3885 C.2     1  ZINC001310073555    0.7100
      9 O9         -9.3384    2.6067   55.9854 O.2     1  ZINC001310073555   -0.5700
     10 N10        -7.7167    1.1423   55.5862 N.am    1  ZINC001310073555   -0.6700
     11 C11        -7.5332    1.6368   54.2853 C.ar    1  ZINC001310073555    0.1000
     12 C12        -7.0127    2.9072   54.0930 C.ar    1  ZINC001310073555   -0.0400
     13 C13        -6.8321    3.3943   52.8120 C.ar    1  ZINC001310073555   -0.2200
     14 C14        -7.1704    2.6137   51.7168 C.ar    1  ZINC001310073555    0.1500
     15 O15        -6.9915    3.0956   50.4580 O.3     1  ZINC001310073555   -0.3200
     16 C16        -7.7902    4.2162   50.0727 C.3     1  ZINC001310073555    0.0300
     17 C17        -7.6907    1.3415   51.9044 C.ar    1  ZINC001310073555   -0.2300
     18 C18        -7.8687    0.8493   53.1863 C.ar    1  ZINC001310073555    0.1400
     19 O19        -8.3787   -0.3976   53.3723 O.3     1  ZINC001310073555   -0.3100
     20 C20        -9.1539   -0.9472   52.3051 C.3     1  ZINC001310073555    0.0300
     21 C21       -11.1628    0.0173   59.6181 C.2     1  ZINC001310073555    0.4800
     22 O22       -11.8018   -0.3166   60.5877 O.2     1  ZINC001310073555   -0.5000
     23 O23       -11.4956   -0.4456   58.4029 O.3     1  ZINC001310073555   -0.3400
     24 C24       -11.7661   -1.8678   58.2906 C.3     1  ZINC001310073555    0.1200
     25 C25       -10.8051   -2.6426   59.1944 C.3     1  ZINC001310073555   -0.1800
     26 C26       -13.2077   -2.1481   58.7197 C.3     1  ZINC001310073555   -0.1400
     27 C27       -11.5706   -2.3110   56.8394 C.3     1  ZINC001310073555   -0.1800
     28 H28        -7.8150   -1.0398   61.5520 H       1  ZINC001310073555    0.0600
     29 H29        -8.7761    0.3406   62.1345 H       1  ZINC001310073555    0.0500
     30 H30        -9.5930   -1.1112   61.5075 H       1  ZINC001310073555    0.0600
     31 H31        -7.8466    0.7912   59.8802 H       1  ZINC001310073555    0.0800
     32 H32        -8.6636   -0.6606   59.2532 H       1  ZINC001310073555    0.0800
     33 H33       -10.4746    1.2627   61.8498 H       1  ZINC001310073555    0.0800
     34 H34        -9.3218    2.4416   61.1793 H       1  ZINC001310073555    0.0800
     35 H35       -11.1323    3.4293   59.8028 H       1  ZINC001310073555    0.0600
     36 H36       -12.2853    2.2505   60.4733 H       1  ZINC001310073555    0.0500
     37 H37       -11.5476    3.4757   61.5330 H       1  ZINC001310073555    0.0600
     38 H38       -10.8012    1.8362   57.9823 H       1  ZINC001310073555    0.0800
     39 H39        -9.5485    2.8147   58.7833 H       1  ZINC001310073555    0.0800
     40 H40        -8.2809    0.4793   57.9595 H       1  ZINC001310073555    0.4000
     41 H41        -7.1697    0.4086   55.9077 H       1  ZINC001310073555    0.4100
     42 H42        -6.7485    3.5169   54.9444 H       1  ZINC001310073555    0.1500
     43 H43        -6.4271    4.3845   52.6638 H       1  ZINC001310073555    0.1300
     44 H44        -8.8452    3.9496   50.1371 H       1  ZINC001310073555    0.0600
     45 H45        -7.5859    5.0542   50.7390 H       1  ZINC001310073555    0.0600
     46 H46        -7.5488    4.4992   49.0482 H       1  ZINC001310073555    0.1000
     47 H47        -7.9540    0.7343   51.0509 H       1  ZINC001310073555    0.1400
     48 H48        -9.4995   -1.9429   52.5824 H       1  ZINC001310073555    0.1000
     49 H49       -10.0133   -0.3050   52.1121 H       1  ZINC001310073555    0.0600
     50 H50        -8.5404   -1.0127   51.4065 H       1  ZINC001310073555    0.0600
     51 H51       -10.9444   -2.3268   60.2283 H       1  ZINC001310073555    0.0600
     52 H52       -11.0081   -3.7102   59.1102 H       1  ZINC001310073555    0.0700
     53 H53        -9.7781   -2.4429   58.8887 H       1  ZINC001310073555    0.0800
     54 H54       -13.8923   -1.5961   58.0758 H       1  ZINC001310073555    0.0700
     55 H55       -13.4108   -3.2157   58.6355 H       1  ZINC001310073555    0.0800
     56 H56       -13.3470   -1.8324   59.7536 H       1  ZINC001310073555    0.0700
     57 H57       -10.5436   -2.1113   56.5336 H       1  ZINC001310073555    0.0800
     58 H58       -11.7737   -3.3786   56.7550 H       1  ZINC001310073555    0.0700
     59 H59       -12.2553   -1.7590   56.1954 H       1  ZINC001310073555    0.0600
@<TRIPOS>BOND
     1     1     2    1
     2     1    28    1
     3     1    29    1
     4     1    30    1
     5     2     3    1
     6     2    31    1
     7     2    32    1
     8     3     4    1
     9     3     6    1
    10     3    21    1
    11     4     5    1
    12     4    33    1
    13     4    34    1
    14     5    35    1
    15     5    36    1
    16     5    37    1
    17     6     7    1
    18     6    38    1
    19     6    39    1
    20     7     8   am
    21     7    40    1
    22     8     9    2
    23     8    10   am
    24    10    11    1
    25    10    41    1
    26    11    18   ar
    27    11    12   ar
    28    12    13   ar
    29    12    42    1
    30    13    14   ar
    31    13    43    1
    32    14    15    1
    33    14    17   ar
    34    15    16    1
    35    16    44    1
    36    16    45    1
    37    16    46    1
    38    17    18   ar
    39    17    47    1
    40    18    19    1
    41    19    20    1
    42    20    48    1
    43    20    49    1
    44    20    50    1
    45    21    22    2
    46    21    23    1
    47    23    24    1
    48    24    25    1
    49    24    26    1
    50    24    27    1
    51    25    51    1
    52    25    52    1
    53    25    53    1
    54    26    54    1
    55    26    55    1
    56    26    56    1
    57    27    57    1
    58    27    58    1
    59    27    59    1
@<TRIPOS>SUBSTRUCTURE
     1 ZINC001310073555        1 TEMP              0 ****  ****    0 ROOT


##########                                Name:    ZINC000561219098
##########                DOCK_Rotatable_Bonds:                   4
##########                         Heavy_Atoms:                  28
##########                    Molecular_Weight:             423.273
##########                DOCK_Rotatable_Bonds:                   4
##########                       Formal_Charge:          0.00999953
##########                     HBond_Acceptors:                   9
##########                        HBond_Donors:                   1
##########                         Heavy_Atoms:                  28
##########                          Grid_Score:          -28.933655
##########                     Grid_vdw_energy:          -28.817972
##########                      Grid_es_energy:           -0.115682
##########           Internal_energy_repulsive:           16.114649

@<TRIPOS>MOLECULE
ZINC000561219098
 45 48 1 0 0
SMALL
USER_CHARGES


@<TRIPOS>ATOM
      1 C1         -8.7762    4.8985   48.1613 C.3     1  ZINC000561219098    0.0700
      2 N2         -8.7854    4.7012   49.6129 N.pl3   1  ZINC000561219098   -0.4500
      3 C3         -9.5158    5.4279   50.5068 C.2     1  ZINC000561219098   -0.0100
      4 C4         -9.2665    4.9589   51.7439 C.2     1  ZINC000561219098   -0.1700
      5 C5         -8.3403    3.8936   51.6135 C.2     1  ZINC000561219098   -0.1100
      6 C6         -7.7765    3.0744   52.7168 C.2     1  ZINC000561219098    0.1600
      7 N7         -7.1119    1.9463   52.5755 N.2     1  ZINC000561219098   -0.2700
      8 N8         -6.7465    1.4787   53.8437 N.pl3   1  ZINC000561219098   -0.4700
      9 C9         -7.2148    2.3676   54.7710 C.2     1  ZINC000561219098    0.0300
     10 C10        -7.0573    2.2698   56.2313 C.2     1  ZINC000561219098    0.5900
     11 O11        -6.1313    2.8339   56.7822 O.2     1  ZINC000561219098   -0.5000
     12 N12        -7.9392    1.5551   56.9577 N.am    1  ZINC000561219098   -0.6100
     13 C13        -9.0674    0.8640   56.3136 C.3     1  ZINC000561219098    0.0500
     14 C14       -10.3539    1.2419   57.0567 C.3     1  ZINC000561219098    0.0500
     15 O15       -10.1775    1.0024   58.4550 O.3     1  ZINC000561219098   -0.3700
     16 C16        -9.1504    1.7923   59.0591 C.3     1  ZINC000561219098    0.1200
     17 H17        -9.3645    2.8495   58.9024 H       1  ZINC000561219098    0.0900
     18 C18        -9.0967    1.5032   60.5371 C.ar    1  ZINC000561219098   -0.0500
     19 C19        -9.0643    2.5454   61.4439 C.ar    1  ZINC000561219098   -0.1000
     20 C20        -9.0154    2.2801   62.8018 C.ar    1  ZINC000561219098    0.1200
     21 F21        -8.9842    3.2987   63.6887 F       1  ZINC000561219098   -0.1200
     22 C22        -8.9990    0.9695   63.2507 C.ar    1  ZINC000561219098   -0.0600
     23 Cl23       -8.9382    0.6353   64.9532 Cl      1  ZINC000561219098   -0.0300
     24 C24        -9.0313   -0.0725   62.3419 C.ar    1  ZINC000561219098   -0.0700
     25 C25        -9.0855    0.1941   60.9856 C.ar    1  ZINC000561219098   -0.0300
     26 Cl26       -9.1267   -1.1140   59.8452 Cl      1  ZINC000561219098   -0.0400
     27 C27        -7.7990    1.4379   58.4179 C.3     1  ZINC000561219098    0.0900
     28 C28        -7.8568    3.3752   54.0841 C.2     1  ZINC000561219098   -0.1700
     29 C29        -8.0703    3.7584   50.2879 C.2     1  ZINC000561219098    0.0300
     30 H30        -9.5554    4.2869   47.7065 H       1  ZINC000561219098    0.0800
     31 H31        -8.9610    5.9489   47.9362 H       1  ZINC000561219098    0.0900
     32 H32        -7.8052    4.6066   47.7610 H       1  ZINC000561219098    0.0900
     33 H33       -10.1818    6.2424   50.2631 H       1  ZINC000561219098    0.1700
     34 H34        -9.6933    5.3265   52.6654 H       1  ZINC000561219098    0.1400
     35 H35        -6.2495    0.6671   54.0314 H       1  ZINC000561219098    0.4400
     36 H36        -9.1409    1.1739   55.2712 H       1  ZINC000561219098    0.1000
     37 H37        -8.9160   -0.2142   56.3668 H       1  ZINC000561219098    0.0900
     38 H38       -10.5724    2.2971   56.8927 H       1  ZINC000561219098    0.0700
     39 H39       -11.1803    0.6362   56.6850 H       1  ZINC000561219098    0.1200
     40 H40        -9.0769    3.5668   61.0933 H       1  ZINC000561219098    0.1600
     41 H41        -9.0181   -1.0944   62.6911 H       1  ZINC000561219098    0.1600
     42 H42        -7.5222    0.4180   58.6849 H       1  ZINC000561219098    0.0900
     43 H43        -7.0335    2.1303   58.7684 H       1  ZINC000561219098    0.1100
     44 H44        -8.3404    4.2367   54.5203 H       1  ZINC000561219098    0.1600
     45 H45        -7.4002    3.0348   49.8476 H       1  ZINC000561219098    0.1700
@<TRIPOS>BOND
     1     1     2    1
     2     1    30    1
     3     1    31    1
     4     1    32    1
     5     2    29    1
     6     2     3    1
     7     3     4    2
     8     3    33    1
     9     4     5    1
    10     4    34    1
    11     5     6    1
    12     5    29    2
    13     6    28    1
    14     6     7    2
    15     7     8    1
    16     8     9    1
    17     8    35    1
    18     9    10    1
    19     9    28    2
    20    10    11    2
    21    10    12   am
    22    12    27    1
    23    12    13    1
    24    13    14    1
    25    13    36    1
    26    13    37    1
    27    14    15    1
    28    14    38    1
    29    14    39    1
    30    15    16    1
    31    16    17    1
    32    16    18    1
    33    16    27    1
    34    18    25   ar
    35    18    19   ar
    36    19    20   ar
    37    19    40    1
    38    20    21    1
    39    20    22   ar
    40    22    23    1
    41    22    24   ar
    42    24    25   ar
    43    24    41    1
    44    25    26    1
    45    27    42    1
    46    27    43    1
    47    28    44    1
    48    29    45    1
@<TRIPOS>SUBSTRUCTURE
     1 ZINC000561219098        1 TEMP              0 ****  ****    0 ROOT


##########                                Name:    ZINC001344051361
##########                DOCK_Rotatable_Bonds:                   8
##########                         Heavy_Atoms:                  28
##########                    Molecular_Weight:             379.456
##########                DOCK_Rotatable_Bonds:                   8
##########                       Formal_Charge:          -0.0100006
##########                     HBond_Acceptors:                   5
##########                        HBond_Donors:                   0
##########                         Heavy_Atoms:                  28
##########                          Grid_Score:          -28.931801
##########                     Grid_vdw_energy:          -28.246441
##########                      Grid_es_energy:           -0.685361
##########           Internal_energy_repulsive:           19.367373

@<TRIPOS>MOLECULE
ZINC001344051361
 53 56 1 0 0
SMALL
USER_CHARGES


@<TRIPOS>ATOM
      1 O1         -9.8830   -1.7565   54.9923 O.2     1  ZINC001344051361   -0.4800
      2 C2        -10.9008   -1.1662   54.7175 C.2     1  ZINC001344051361    0.4800
      3 O3        -12.0289   -1.4198   55.3992 O.3     1  ZINC001344051361   -0.3500
      4 C4        -11.9165   -2.2818   56.5623 C.3     1  ZINC001344051361    0.0700
      5 C5        -11.6993   -1.4262   57.8121 C.3     1  ZINC001344051361   -0.1000
      6 H6        -11.7784   -0.3714   57.5490 H       1  ZINC001344051361    0.0900
      7 C7        -12.7605   -1.7726   58.8589 C.3     1  ZINC001344051361   -0.1200
      8 C8        -12.5642   -0.8942   60.0967 C.3     1  ZINC001344051361   -0.1300
      9 C9        -11.1829   -1.1692   60.6991 C.3     1  ZINC001344051361    0.0800
     10 N10       -10.1656   -0.9784   59.6563 N.am    1  ZINC001344051361   -0.6100
     11 C11        -9.1213   -0.1508   59.8590 C.2     1  ZINC001344051361    0.5600
     12 O12        -8.2864   -0.0014   58.9883 O.2     1  ZINC001344051361   -0.5300
     13 C13        -8.9914    0.5755   61.1402 C.ar    1  ZINC001344051361   -0.1300
     14 C14        -8.5845   -0.1011   62.2912 C.ar    1  ZINC001344051361   -0.1000
     15 C15        -8.4648    0.5826   63.4835 C.ar    1  ZINC001344051361   -0.1300
     16 C16        -8.7475    1.9358   63.5399 C.ar    1  ZINC001344051361   -0.0900
     17 C17        -9.1517    2.6123   62.4027 C.ar    1  ZINC001344051361   -0.1300
     18 C18        -9.2694    1.9418   61.2027 C.ar    1  ZINC001344051361   -0.0600
     19 C19       -10.3078   -1.7066   58.3882 C.3     1  ZINC001344051361    0.1200
     20 C20       -10.9022   -0.1404   53.6134 C.3     1  ZINC001344051361    0.0200
     21 O21       -10.8737    1.2234   54.0392 O.3     1  ZINC001344051361   -0.2500
     22 C22        -9.8005    1.6183   54.7735 C.ar    1  ZINC001344051361    0.1200
     23 C23        -9.9264    2.6566   55.6850 C.ar    1  ZINC001344051361   -0.2000
     24 C24        -8.8341    3.0558   56.4306 C.ar    1  ZINC001344051361   -0.0800
     25 C25        -7.6160    2.4218   56.2687 C.ar    1  ZINC001344051361   -0.1500
     26 C26        -7.4879    1.3870   55.3606 C.ar    1  ZINC001344051361   -0.0800
     27 C27        -8.5788    0.9799   54.6171 C.ar    1  ZINC001344051361   -0.1400
     28 C28       -10.1634   -0.4929   52.3208 C.3     1  ZINC001344051361   -0.1700
     29 C29       -11.6930   -0.4683   52.3454 C.3     1  ZINC001344051361   -0.1100
     30 H30       -12.8321   -2.8624   56.6741 H       1  ZINC001344051361    0.0800
     31 H31       -11.0712   -2.9577   56.4333 H       1  ZINC001344051361    0.0800
     32 H32       -13.7524   -1.5968   58.4425 H       1  ZINC001344051361    0.0700
     33 H33       -12.6653   -2.8215   59.1392 H       1  ZINC001344051361    0.0700
     34 H34       -12.6348    0.1558   59.8126 H       1  ZINC001344051361    0.0700
     35 H35       -13.3346   -1.1251   60.8325 H       1  ZINC001344051361    0.0800
     36 H36       -10.9982   -0.4771   61.5207 H       1  ZINC001344051361    0.1100
     37 H37       -11.1420   -2.1947   61.0663 H       1  ZINC001344051361    0.0700
     38 H38        -8.3643   -1.1576   62.2487 H       1  ZINC001344051361    0.1400
     39 H39        -8.1501    0.0603   64.3749 H       1  ZINC001344051361    0.1300
     40 H40        -8.6526    2.4663   64.4759 H       1  ZINC001344051361    0.1300
     41 H41        -9.3712    3.6685   62.4536 H       1  ZINC001344051361    0.1300
     42 H42        -9.5847    2.4711   60.3157 H       1  ZINC001344051361    0.1300
     43 H43       -10.1956   -2.7761   58.5664 H       1  ZINC001344051361    0.0700
     44 H44        -9.5458   -1.3692   57.6856 H       1  ZINC001344051361    0.1000
     45 H45       -10.8774    3.1526   55.8113 H       1  ZINC001344051361    0.1300
     46 H46        -8.9315    3.8641   57.1403 H       1  ZINC001344051361    0.1300
     47 H47        -6.7631    2.7356   56.8522 H       1  ZINC001344051361    0.1300
     48 H48        -6.5354    0.8937   55.2356 H       1  ZINC001344051361    0.1300
     49 H49        -8.4782    0.1717   53.9079 H       1  ZINC001344051361    0.1300
     50 H50        -9.6555    0.3156   51.7949 H       1  ZINC001344051361    0.1200
     51 H51        -9.6765   -1.4667   52.2689 H       1  ZINC001344051361    0.1200
     52 H52       -12.2124   -1.4259   52.3096 H       1  ZINC001344051361    0.1200
     53 H53       -12.1914    0.3564   51.8357 H       1  ZINC001344051361    0.1200
@<TRIPOS>BOND
     1     1     2    2
     2     2     3    1
     3     2    20    1
     4     3     4    1
     5     4     5    1
     6     4    30    1
     7     4    31    1
     8     5     6    1
     9     5    19    1
    10     5     7    1
    11     7     8    1
    12     7    32    1
    13     7    33    1
    14     8     9    1
    15     8    34    1
    16     8    35    1
    17     9    10    1
    18     9    36    1
    19     9    37    1
    20    10    11   am
    21    10    19    1
    22    11    12    2
    23    11    13    1
    24    13    18   ar
    25    13    14   ar
    26    14    15   ar
    27    14    38    1
    28    15    16   ar
    29    15    39    1
    30    16    17   ar
    31    16    40    1
    32    17    18   ar
    33    17    41    1
    34    18    42    1
    35    19    43    1
    36    19    44    1
    37    20    29    1
    38    20    21    1
    39    20    28    1
    40    21    22    1
    41    22    27   ar
    42    22    23   ar
    43    23    24   ar
    44    23    45    1
    45    24    25   ar
    46    24    46    1
    47    25    26   ar
    48    25    47    1
    49    26    27   ar
    50    26    48    1
    51    27    49    1
    52    28    29    1
    53    28    50    1
    54    28    51    1
    55    29    52    1
    56    29    53    1
@<TRIPOS>SUBSTRUCTURE
     1 ZINC001344051361        1 TEMP              0 ****  ****    0 ROOT


##########                                Name:    ZINC000918875053
##########                DOCK_Rotatable_Bonds:                   6
##########                         Heavy_Atoms:                  26
##########                    Molecular_Weight:             359.357
##########                DOCK_Rotatable_Bonds:                   6
##########                       Formal_Charge:           0.0200003
##########                     HBond_Acceptors:                   8
##########                        HBond_Donors:                   0
##########                         Heavy_Atoms:                  26
##########                          Grid_Score:          -28.909307
##########                     Grid_vdw_energy:          -28.576527
##########                      Grid_es_energy:           -0.332780
##########           Internal_energy_repulsive:            9.515002

@<TRIPOS>MOLECULE
ZINC000918875053
 44 47 1 0 0
SMALL
USER_CHARGES


@<TRIPOS>ATOM
      1 C1        -11.9002    1.7883   62.2661 C.3     1  ZINC000918875053   -0.1700
      2 C2        -11.3957    0.3690   61.9977 C.3     1  ZINC000918875053    0.1900
      3 H3        -12.1717   -0.3488   62.2635 H       1  ZINC000918875053    0.1400
      4 O4        -11.0690    0.2296   60.5898 O.3     1  ZINC000918875053   -0.3400
      5 C5        -10.9335   -1.0192   60.1165 C.2     1  ZINC000918875053    0.4800
      6 O6        -11.5140   -1.9342   60.6510 O.2     1  ZINC000918875053   -0.4900
      7 C7        -10.0571   -1.2801   58.9187 C.3     1  ZINC000918875053   -0.0900
      8 H8         -9.0474   -1.5501   59.2280 H       1  ZINC000918875053    0.1400
      9 C9        -10.6692   -2.3735   58.0127 C.3     1  ZINC000918875053   -0.1400
     10 C10       -10.3462   -1.9148   56.6078 C.2     1  ZINC000918875053    0.5300
     11 O11       -10.4000   -2.6149   55.6187 O.2     1  ZINC000918875053   -0.5000
     12 N12        -9.9911   -0.6184   56.6148 N.am    1  ZINC000918875053   -0.5800
     13 C13        -9.6232    0.1064   55.4743 C.ar    1  ZINC000918875053    0.1000
     14 C14        -8.3736    0.7058   55.4044 C.ar    1  ZINC000918875053   -0.0800
     15 C15        -8.0131    1.4200   54.2777 C.ar    1  ZINC000918875053   -0.1200
     16 C16        -8.8952    1.5387   53.2200 C.ar    1  ZINC000918875053   -0.0800
     17 C17       -10.1419    0.9431   53.2848 C.ar    1  ZINC000918875053   -0.1500
     18 C18       -10.5072    0.2222   54.4067 C.ar    1  ZINC000918875053    0.1100
     19 F19       -11.7246   -0.3601   54.4701 F       1  ZINC000918875053   -0.1300
     20 C20       -10.0375   -0.0597   57.9718 C.3     1  ZINC000918875053    0.1200
     21 C21       -10.1648    0.1083   62.8271 C.2     1  ZINC000918875053    0.1800
     22 N22        -9.9293    0.5553   64.0371 N.2     1  ZINC000918875053   -0.4600
     23 C23        -8.7196    0.0725   64.3725 C.2     1  ZINC000918875053    0.2100
     24 C24        -7.9966    0.3038   65.6743 C.3     1  ZINC000918875053   -0.0900
     25 C25        -8.1005    1.6949   66.3027 C.3     1  ZINC000918875053   -0.1600
     26 C26        -8.8483    0.5153   66.9276 C.3     1  ZINC000918875053   -0.1500
     27 N27        -8.2891   -0.6305   63.3680 N.2     1  ZINC000918875053   -0.3700
     28 O28        -9.1070   -0.6274   62.4722 O.3     1  ZINC000918875053    0.1000
     29 H29       -12.7905    1.9769   61.6662 H       1  ZINC000918875053    0.0900
     30 H30       -12.1453    1.8930   63.3229 H       1  ZINC000918875053    0.0900
     31 H31       -11.1242    2.5062   62.0002 H       1  ZINC000918875053    0.0800
     32 H32       -10.2064   -3.3394   58.2146 H       1  ZINC000918875053    0.1300
     33 H33       -11.7482   -2.4287   58.1572 H       1  ZINC000918875053    0.1100
     34 H34        -7.6835    0.6146   56.2301 H       1  ZINC000918875053    0.1400
     35 H35        -7.0405    1.8865   54.2234 H       1  ZINC000918875053    0.1400
     36 H36        -8.6105    2.0981   52.3412 H       1  ZINC000918875053    0.1400
     37 H37       -10.8288    1.0377   52.4568 H       1  ZINC000918875053    0.1400
     38 H38       -10.9416    0.5345   58.1044 H       1  ZINC000918875053    0.1000
     39 H39        -9.1537    0.5502   58.1590 H       1  ZINC000918875053    0.1000
     40 H40        -7.0546   -0.2322   65.7905 H       1  ZINC000918875053    0.1400
     41 H41        -7.2268    2.0745   66.8324 H       1  ZINC000918875053    0.1100
     42 H42        -8.6919    2.4428   65.7745 H       1  ZINC000918875053    0.1000
     43 H43        -9.9316    0.4872   66.8105 H       1  ZINC000918875053    0.1000
     44 H44        -8.4664    0.1189   67.8684 H       1  ZINC000918875053    0.1100
@<TRIPOS>BOND
     1     1     2    1
     2     1    29    1
     3     1    30    1
     4     1    31    1
     5     2     3    1
     6     2     4    1
     7     2    21    1
     8     4     5    1
     9     5     6    2
    10     5     7    1
    11     7     8    1
    12     7    20    1
    13     7     9    1
    14     9    10    1
    15     9    32    1
    16     9    33    1
    17    10    11    2
    18    10    12   am
    19    12    13    1
    20    12    20    1
    21    13    18   ar
    22    13    14   ar
    23    14    15   ar
    24    14    34    1
    25    15    16   ar
    26    15    35    1
    27    16    17   ar
    28    16    36    1
    29    17    18   ar
    30    17    37    1
    31    18    19    1
    32    20    38    1
    33    20    39    1
    34    21    28    1
    35    21    22    2
    36    22    23    1
    37    23    24    1
    38    23    27    2
    39    24    26    1
    40    24    25    1
    41    24    40    1
    42    25    26    1
    43    25    41    1
    44    25    42    1
    45    26    43    1
    46    26    44    1
    47    27    28    1
@<TRIPOS>SUBSTRUCTURE
     1 ZINC000918875053        1 TEMP              0 ****  ****    0 ROOT


##########                                Name:    ZINC000409064708
##########                DOCK_Rotatable_Bonds:                   8
##########                         Heavy_Atoms:                  29
##########                    Molecular_Weight:             415.442
##########                DOCK_Rotatable_Bonds:                   8
##########                       Formal_Charge:                0.03
##########                     HBond_Acceptors:                   8
##########                        HBond_Donors:                   0
##########                         Heavy_Atoms:                  29
##########                          Grid_Score:          -28.880459
##########                     Grid_vdw_energy:          -28.181305
##########                      Grid_es_energy:           -0.699155
##########           Internal_energy_repulsive:           19.695623

@<TRIPOS>MOLECULE
ZINC000409064708
 47 49 1 0 0
SMALL
USER_CHARGES


@<TRIPOS>ATOM
      1 C1         -8.9063   -0.2828   62.8548 C.3     1  ZINC000409064708    0.0400
      2 O2         -9.9654   -0.4604   61.8774 O.3     1  ZINC000409064708   -0.3500
      3 C3         -9.6586   -1.1441   60.7639 C.2     1  ZINC000409064708    0.4600
      4 O4         -8.5219   -1.5051   60.5704 O.2     1  ZINC000409064708   -0.4900
      5 C5        -10.7321   -1.4617   59.7550 C.3     1  ZINC000409064708    0.1400
      6 H6        -10.7054   -2.5255   59.5187 H       1  ZINC000409064708    0.1500
      7 C7        -12.1008   -1.1025   60.3363 C.3     1  ZINC000409064708   -0.1600
      8 N8        -10.5005   -0.6846   58.5347 N.am    1  ZINC000409064708   -0.5600
      9 C9        -10.2714    0.6316   58.6074 C.2     1  ZINC000409064708    0.5400
     10 O10       -10.2283    1.3047   59.6196 O.2     1  ZINC000409064708   -0.4200
     11 S11       -10.0419    1.2067   56.9468 S.3     1  ZINC000409064708   -0.0100
     12 C12       -10.2705   -0.3921   56.2106 C.2     1  ZINC000409064708   -0.2400
     13 C13       -10.2276   -0.7188   54.8941 C.2     1  ZINC000409064708    0.0900
     14 C14        -9.9652    0.3185   53.8884 C.ar    1  ZINC000409064708   -0.1400
     15 C15        -8.7891    1.0761   53.9507 C.ar    1  ZINC000409064708    0.0000
     16 C16        -8.5482    2.0473   53.0052 C.ar    1  ZINC000409064708   -0.1600
     17 C17        -9.4701    2.2768   51.9903 C.ar    1  ZINC000409064708    0.1600
     18 O18        -9.2274    3.2358   51.0604 O.3     1  ZINC000409064708   -0.3000
     19 C19        -7.9811    3.9288   51.1531 C.3     1  ZINC000409064708    0.1000
     20 C20        -7.8323    4.8550   49.9738 C.ar    1  ZINC000409064708   -0.0700
     21 C21        -8.4492    4.5514   48.7747 C.ar    1  ZINC000409064708   -0.1000
     22 C22        -8.3135    5.4002   47.6918 C.ar    1  ZINC000409064708   -0.0900
     23 C23        -7.5609    6.5533   47.8071 C.ar    1  ZINC000409064708   -0.1400
     24 C24        -6.9428    6.8588   49.0081 C.ar    1  ZINC000409064708    0.1000
     25 F25        -6.2066    7.9859   49.1220 F       1  ZINC000409064708   -0.1400
     26 C26        -7.0836    6.0108   50.0932 C.ar    1  ZINC000409064708   -0.1300
     27 C27       -10.6392    1.5278   51.9237 C.ar    1  ZINC000409064708   -0.2200
     28 C28       -10.8874    0.5498   52.8602 C.ar    1  ZINC000409064708   -0.0400
     29 C29       -10.5111   -1.2800   57.3538 C.2     1  ZINC000409064708    0.5600
     30 O30       -10.7122   -2.4733   57.2244 O.2     1  ZINC000409064708   -0.4600
     31 H31        -8.5597   -1.2582   63.1962 H       1  ZINC000409064708    0.0700
     32 H32        -8.0773    0.2579   62.3981 H       1  ZINC000409064708    0.0700
     33 H33        -9.2867    0.2851   63.7037 H       1  ZINC000409064708    0.1100
     34 H34       -12.2731   -1.6806   61.2442 H       1  ZINC000409064708    0.1000
     35 H35       -12.1275   -0.0387   60.5726 H       1  ZINC000409064708    0.0800
     36 H36       -12.8772   -1.3321   59.6066 H       1  ZINC000409064708    0.0800
     37 H37       -10.3865   -1.7417   54.5861 H       1  ZINC000409064708    0.1600
     38 H38        -8.0726    0.8991   54.7391 H       1  ZINC000409064708    0.1300
     39 H39        -7.6416    2.6321   53.0521 H       1  ZINC000409064708    0.1400
     40 H40        -7.9554    4.5083   52.0759 H       1  ZINC000409064708    0.0800
     41 H41        -7.1637    3.2076   51.1541 H       1  ZINC000409064708    0.0800
     42 H42        -9.0373    3.6502   48.6835 H       1  ZINC000409064708    0.1300
     43 H43        -8.7957    5.1618   46.7553 H       1  ZINC000409064708    0.1400
     44 H44        -7.4545    7.2159   46.9609 H       1  ZINC000409064708    0.1400
     45 H45        -6.6023    6.2482   51.0304 H       1  ZINC000409064708    0.1400
     46 H46       -11.3521    1.7105   51.1333 H       1  ZINC000409064708    0.1300
     47 H47       -11.7960   -0.0317   52.8075 H       1  ZINC000409064708    0.1300
@<TRIPOS>BOND
     1     1     2    1
     2     1    31    1
     3     1    32    1
     4     1    33    1
     5     2     3    1
     6     3     4    2
     7     3     5    1
     8     5     6    1
     9     5     7    1
    10     5     8    1
    11     7    34    1
    12     7    35    1
    13     7    36    1
    14     8    29   am
    15     8     9   am
    16     9    10    2
    17     9    11    1
    18    11    12    1
    19    12    13    2
    20    12    29    1
    21    13    14    1
    22    13    37    1
    23    14    28   ar
    24    14    15   ar
    25    15    16   ar
    26    15    38    1
    27    16    17   ar
    28    16    39    1
    29    17    18    1
    30    17    27   ar
    31    18    19    1
    32    19    20    1
    33    19    40    1
    34    19    41    1
    35    20    26   ar
    36    20    21   ar
    37    21    22   ar
    38    21    42    1
    39    22    23   ar
    40    22    43    1
    41    23    24   ar
    42    23    44    1
    43    24    25    1
    44    24    26   ar
    45    26    45    1
    46    27    28   ar
    47    27    46    1
    48    28    47    1
    49    29    30    2
@<TRIPOS>SUBSTRUCTURE
     1 ZINC000409064708        1 TEMP              0 ****  ****    0 ROOT


##########                                Name:    ZINC001015955459
##########                DOCK_Rotatable_Bonds:                   6
##########                         Heavy_Atoms:                  24
##########                    Molecular_Weight:             347.844
##########                DOCK_Rotatable_Bonds:                   6
##########                       Formal_Charge:          -0.0200002
##########                     HBond_Acceptors:                   6
##########                        HBond_Donors:                   1
##########                         Heavy_Atoms:                  24
##########                          Grid_Score:          -28.878796
##########                     Grid_vdw_energy:          -29.787243
##########                      Grid_es_energy:            0.908448
##########           Internal_energy_repulsive:           15.014272

@<TRIPOS>MOLECULE
ZINC001015955459
 46 48 1 0 0
SMALL
USER_CHARGES


@<TRIPOS>ATOM
      1 C1        -11.5346    0.1017   56.4406 C.3     1  ZINC001015955459   -0.1500
      2 C2        -10.3683   -0.7885   56.0067 C.3     1  ZINC001015955459   -0.0300
      3 C3        -10.9132   -2.0786   55.3904 C.3     1  ZINC001015955459   -0.1500
      4 C4         -9.5319   -0.0590   54.9872 C.2     1  ZINC001015955459    0.0600
      5 C5         -8.5695    0.8686   55.2432 C.2     1  ZINC001015955459   -0.0800
      6 C6         -8.1483    1.3500   56.5714 C.2     1  ZINC001015955459    0.6100
      7 O7         -7.3103    2.2267   56.6628 O.2     1  ZINC001015955459   -0.5300
      8 N8         -8.6919    0.8188   57.6844 N.am    1  ZINC001015955459   -0.7100
      9 C9         -8.2747    1.2985   59.0042 C.3     1  ZINC001015955459    0.1400
     10 H10        -7.3010    1.7842   58.9393 H       1  ZINC001015955459    0.1000
     11 C11        -9.3235    2.2747   59.5757 C.3     1  ZINC001015955459   -0.1300
     12 C12        -9.8189    1.6131   60.8795 C.3     1  ZINC001015955459    0.0200
     13 N13        -8.7093    0.7136   61.2878 N.3     1  ZINC001015955459   -0.4900
     14 C14        -9.1893   -0.3350   62.1979 C.3     1  ZINC001015955459    0.0800
     15 C15        -8.9497    0.0893   63.6239 C.ar    1  ZINC001015955459   -0.1100
     16 C16        -7.7094   -0.1030   64.2029 C.ar    1  ZINC001015955459   -0.1100
     17 C17        -7.4875    0.2905   65.5097 C.ar    1  ZINC001015955459   -0.1000
     18 C18        -8.5088    0.8665   66.2411 C.ar    1  ZINC001015955459   -0.1100
     19 C19        -9.7522    1.0544   65.6637 C.ar    1  ZINC001015955459   -0.0300
     20 Cl20      -11.0358    1.7774   66.5820 Cl      1  ZINC001015955459   -0.0700
     21 C21        -9.9721    0.6654   64.3546 C.ar    1  ZINC001015955459   -0.1000
     22 C22        -8.2239    0.1274   60.0089 C.3     1  ZINC001015955459    0.0100
     23 N23        -8.0732    1.2721   54.0423 N.2     1  ZINC001015955459   -0.4600
     24 C24        -8.6901    0.6212   53.1020 C.2     1  ZINC001015955459    0.1800
     25 O25        -9.5940   -0.2008   53.6536 O.3     1  ZINC001015955459   -0.1900
     26 H26       -12.1486    0.3443   55.5734 H       1  ZINC001015955459    0.0600
     27 H27       -12.1396   -0.4260   57.1781 H       1  ZINC001015955459    0.0700
     28 H28       -11.1465    1.0207   56.8797 H       1  ZINC001015955459    0.0600
     29 H29        -9.7542   -1.0312   56.8739 H       1  ZINC001015955459    0.1300
     30 H30       -10.0823   -2.7127   55.0813 H       1  ZINC001015955459    0.0600
     31 H31       -11.5182   -2.6062   56.1278 H       1  ZINC001015955459    0.0700
     32 H32       -11.5273   -1.8359   54.5233 H       1  ZINC001015955459    0.0600
     33 H33        -9.3595    0.1187   57.6114 H       1  ZINC001015955459    0.4100
     34 H34        -8.8646    3.2396   59.7913 H       1  ZINC001015955459    0.0800
     35 H35       -10.1487    2.3970   58.8741 H       1  ZINC001015955459    0.0700
     36 H36        -9.9972    2.3684   61.6451 H       1  ZINC001015955459    0.0900
     37 H37       -10.7257    1.0379   60.6933 H       1  ZINC001015955459    0.0500
     38 H38       -10.2563   -0.4926   62.0400 H       1  ZINC001015955459    0.0900
     39 H39        -8.6518   -1.2623   61.9995 H       1  ZINC001015955459    0.0900
     40 H40        -6.9123   -0.5572   63.6332 H       1  ZINC001015955459    0.1300
     41 H41        -6.5171    0.1438   65.9602 H       1  ZINC001015955459    0.1300
     42 H42        -8.3365    1.1696   67.2633 H       1  ZINC001015955459    0.1300
     43 H43       -10.9425    0.8114   63.9034 H       1  ZINC001015955459    0.1300
     44 H44        -8.8816   -0.6795   59.6859 H       1  ZINC001015955459    0.0700
     45 H45        -7.2017   -0.2350   60.1188 H       1  ZINC001015955459    0.0900
     46 H46        -8.5069    0.7289   52.0432 H       1  ZINC001015955459    0.2600
@<TRIPOS>BOND
     1     1     2    1
     2     1    26    1
     3     1    27    1
     4     1    28    1
     5     2     3    1
     6     2     4    1
     7     2    29    1
     8     3    30    1
     9     3    31    1
    10     3    32    1
    11     4    25    1
    12     4     5    2
    13     5     6    1
    14     5    23    1
    15     6     7    2
    16     6     8   am
    17     8     9    1
    18     8    33    1
    19     9    10    1
    20     9    22    1
    21     9    11    1
    22    11    12    1
    23    11    34    1
    24    11    35    1
    25    12    13    1
    26    12    36    1
    27    12    37    1
    28    13    14    1
    29    13    22    1
    30    14    15    1
    31    14    38    1
    32    14    39    1
    33    15    21   ar
    34    15    16   ar
    35    16    17   ar
    36    16    40    1
    37    17    18   ar
    38    17    41    1
    39    18    19   ar
    40    18    42    1
    41    19    20    1
    42    19    21   ar
    43    21    43    1
    44    22    44    1
    45    22    45    1
    46    23    24    2
    47    24    25    1
    48    24    46    1
@<TRIPOS>SUBSTRUCTURE
     1 ZINC001015955459        1 TEMP              0 ****  ****    0 ROOT


##########                                Name:    ZINC000274225049
##########                DOCK_Rotatable_Bonds:                   6
##########                         Heavy_Atoms:                  25
##########                    Molecular_Weight:             380.895
##########                DOCK_Rotatable_Bonds:                   6
##########                       Formal_Charge:           0.0200006
##########                     HBond_Acceptors:                   7
##########                        HBond_Donors:                   2
##########                         Heavy_Atoms:                  25
##########                          Grid_Score:          -28.857048
##########                     Grid_vdw_energy:          -27.299814
##########                      Grid_es_energy:           -1.557234
##########           Internal_energy_repulsive:           18.664494

@<TRIPOS>MOLECULE
ZINC000274225049
 46 48 1 0 0
SMALL
USER_CHARGES


@<TRIPOS>ATOM
      1 C1         -8.3512    1.3821   59.2899 C.3     1  ZINC000274225049   -0.1600
      2 C2         -9.2047    0.1707   59.6703 C.3     1  ZINC000274225049    0.2000
      3 H3         -8.5548   -0.6554   59.9589 H       1  ZINC000274225049    0.1100
      4 N4        -10.0232   -0.2297   58.5232 N.am    1  ZINC000274225049   -0.7400
      5 C5        -10.4196   -1.5112   58.3927 C.2     1  ZINC000274225049    0.7100
      6 O6        -10.0991   -2.3346   59.2277 O.2     1  ZINC000274225049   -0.5800
      7 N7        -11.1712   -1.8798   57.3364 N.am    1  ZINC000274225049   -0.7500
      8 C8        -11.6036   -3.2724   57.1955 C.3     1  ZINC000274225049    0.1500
      9 C9        -13.0902   -3.3823   57.5403 C.3     1  ZINC000274225049   -0.1000
     10 H10       -13.3187   -4.3892   57.8895 H       1  ZINC000274225049    0.1000
     11 C11       -13.9439   -3.0464   56.3049 C.3     1  ZINC000274225049   -0.1100
     12 C12       -15.4024   -2.8309   56.7557 C.3     1  ZINC000274225049   -0.5900
     13 S13       -15.2848   -2.2457   58.4847 S.o2    1  ZINC000274225049    2.3900
     14 O14       -15.6896   -0.8852   58.5499 O.2     1  ZINC000274225049   -0.9300
     15 O15       -15.8817   -3.2039   59.3478 O.2     1  ZINC000274225049   -0.9300
     16 C16       -13.4602   -2.3451   58.6318 C.3     1  ZINC000274225049   -0.5900
     17 C17       -10.1018    0.5314   60.8262 C.ar    1  ZINC000274225049   -0.0700
     18 C18        -9.6337    0.4161   62.1459 C.ar    1  ZINC000274225049   -0.0300
     19 C19        -8.3310   -0.0335   62.4215 C.ar    1  ZINC000274225049   -0.1100
     20 C20        -7.9118   -0.1322   63.7123 C.ar    1  ZINC000274225049   -0.1100
     21 C21        -8.7555    0.2062   64.7689 C.ar    1  ZINC000274225049   -0.1100
     22 C22       -10.0233    0.6453   64.5401 C.ar    1  ZINC000274225049   -0.1000
     23 C23       -10.4917    0.7603   63.2203 C.ar    1  ZINC000274225049   -0.0400
     24 C24       -11.7949    1.2106   62.9444 C.ar    1  ZINC000274225049   -0.0300
     25 Cl25      -12.8638    1.6387   64.2436 Cl      1  ZINC000274225049   -0.0600
     26 C26       -12.2138    1.3096   61.6517 C.ar    1  ZINC000274225049   -0.1000
     27 C27       -11.3680    0.9759   60.5964 C.ar    1  ZINC000274225049   -0.1000
     28 H28        -7.7022    1.1213   58.4539 H       1  ZINC000274225049    0.0700
     29 H29        -9.0011    2.2083   59.0013 H       1  ZINC000274225049    0.0700
     30 H30        -7.7421    1.6800   60.1435 H       1  ZINC000274225049    0.0800
     31 H31       -10.2798    0.4276   57.8575 H       1  ZINC000274225049    0.4000
     32 H32       -11.4259   -1.2230   56.6696 H       1  ZINC000274225049    0.4000
     33 H33       -11.4436   -3.6003   56.1683 H       1  ZINC000274225049    0.0800
     34 H34       -11.0261   -3.9024   57.8720 H       1  ZINC000274225049    0.0800
     35 H35       -13.5674   -2.1376   55.8354 H       1  ZINC000274225049    0.0900
     36 H36       -13.8983   -3.8705   55.5929 H       1  ZINC000274225049    0.0900
     37 H37       -15.8836   -2.0769   56.1328 H       1  ZINC000274225049    0.1400
     38 H38       -15.9551   -3.7693   56.7105 H       1  ZINC000274225049    0.1400
     39 H39       -13.1706   -2.7019   59.6202 H       1  ZINC000274225049    0.1400
     40 H40       -13.0016   -1.3796   58.4182 H       1  ZINC000274225049    0.1400
     41 H41        -7.6662   -0.2996   61.6129 H       1  ZINC000274225049    0.1300
     42 H42        -6.9103   -0.4784   63.9214 H       1  ZINC000274225049    0.1300
     43 H43        -8.3981    0.1184   65.7842 H       1  ZINC000274225049    0.1300
     44 H44       -10.6660    0.9036   65.3687 H       1  ZINC000274225049    0.1300
     45 H45       -13.2153    1.6554   61.4420 H       1  ZINC000274225049    0.1300
     46 H46       -11.7248    1.0633   59.5808 H       1  ZINC000274225049    0.1300
@<TRIPOS>BOND
     1     1     2    1
     2     1    28    1
     3     1    29    1
     4     1    30    1
     5     2     3    1
     6     2     4    1
     7     2    17    1
     8     4     5   am
     9     4    31    1
    10     5     6    2
    11     5     7   am
    12     7     8    1
    13     7    32    1
    14     8     9    1
    15     8    33    1
    16     8    34    1
    17     9    10    1
    18     9    16    1
    19     9    11    1
    20    11    12    1
    21    11    35    1
    22    11    36    1
    23    12    13    1
    24    12    37    1
    25    12    38    1
    26    13    14    2
    27    13    15    2
    28    13    16    1
    29    16    39    1
    30    16    40    1
    31    17    27   ar
    32    17    18   ar
    33    18    23   ar
    34    18    19   ar
    35    19    20   ar
    36    19    41    1
    37    20    21   ar
    38    20    42    1
    39    21    22   ar
    40    21    43    1
    41    22    23   ar
    42    22    44    1
    43    23    24   ar
    44    24    25    1
    45    24    26   ar
    46    26    27   ar
    47    26    45    1
    48    27    46    1
@<TRIPOS>SUBSTRUCTURE
     1 ZINC000274225049        1 TEMP              0 ****  ****    0 ROOT


##########                                Name:    ZINC000274267583
##########                DOCK_Rotatable_Bonds:                   5
##########                         Heavy_Atoms:                  24
##########                    Molecular_Weight:             349.407
##########                DOCK_Rotatable_Bonds:                   5
##########                       Formal_Charge:           0.0300001
##########                     HBond_Acceptors:                   7
##########                        HBond_Donors:                   1
##########                         Heavy_Atoms:                  24
##########                          Grid_Score:          -28.838587
##########                     Grid_vdw_energy:          -27.926649
##########                      Grid_es_energy:           -0.911938
##########           Internal_energy_repulsive:           15.690068

@<TRIPOS>MOLECULE
ZINC000274267583
 43 45 1 0 0
SMALL
USER_CHARGES


@<TRIPOS>ATOM
      1 C1         -9.3505    0.9400   65.5546 C.3     1  ZINC000274267583    0.0200
      2 O2        -10.5092    1.2617   64.7826 O.3     1  ZINC000274267583   -0.3100
      3 C3        -10.6350    0.6510   63.5750 C.ar    1  ZINC000274267583    0.1900
      4 C4         -9.6766   -0.2591   63.1534 C.ar    1  ZINC000274267583   -0.2300
      5 C5         -9.8071   -0.8789   61.9256 C.ar    1  ZINC000274267583    0.0300
      6 C6        -10.8914   -0.5924   61.1171 C.ar    1  ZINC000274267583   -0.7200
      7 S7        -11.0546   -1.3841   59.5515 S.o2    1  ZINC000274267583    2.7000
      8 O8        -10.9774   -2.7814   59.7983 O.2     1  ZINC000274267583   -0.9500
      9 O9        -12.1601   -0.7692   58.9041 O.2     1  ZINC000274267583   -0.9500
     10 N10        -9.7142   -0.9917   58.6617 N.am    1  ZINC000274267583   -1.1100
     11 C11        -9.4206    0.4114   58.3594 C.3     1  ZINC000274267583    0.2100
     12 H12       -10.3251    1.0064   58.4851 H       1  ZINC000274267583    0.1000
     13 C13        -8.3383    0.9221   59.3137 C.3     1  ZINC000274267583   -0.1800
     14 C14        -7.8410    2.2782   58.7971 C.3     1  ZINC000274267583    0.0600
     15 O15        -7.2077    2.0740   57.5334 O.3     1  ZINC000274267583   -0.3100
     16 C16        -7.8752    1.3468   56.5986 C.ar    1  ZINC000274267583    0.1100
     17 C17        -7.4667    1.4385   55.2723 C.ar    1  ZINC000274267583   -0.1100
     18 C18        -8.1140    0.7133   54.2929 C.ar    1  ZINC000274267583   -0.1600
     19 C19        -9.1764   -0.1111   54.6317 C.ar    1  ZINC000274267583    0.0900
     20 O20        -9.8150   -0.8294   53.6697 O.3     1  ZINC000274267583   -0.3200
     21 C21        -9.1621   -0.9423   52.4035 C.3     1  ZINC000274267583    0.0300
     22 C22        -9.5858   -0.2017   55.9524 C.ar    1  ZINC000274267583   -0.1000
     23 C23        -8.9375    0.5274   56.9358 C.ar    1  ZINC000274267583   -0.1400
     24 C24       -11.8482    0.3140   61.5352 C.ar    1  ZINC000274267583    0.0200
     25 C25       -11.7250    0.9326   62.7643 C.ar    1  ZINC000274267583   -0.1700
     26 H26        -9.3393   -0.1295   65.7646 H       1  ZINC000274267583    0.0600
     27 H27        -8.4547    1.2098   64.9952 H       1  ZINC000274267583    0.0600
     28 H28        -9.3736    1.4944   66.4928 H       1  ZINC000274267583    0.1100
     29 H29        -8.8291   -0.4827   63.7843 H       1  ZINC000274267583    0.1400
     30 H30        -9.0612   -1.5875   61.5971 H       1  ZINC000274267583    0.1400
     31 H31        -9.1236   -1.6909   58.3404 H       1  ZINC000274267583    0.4200
     32 H32        -8.7561    1.0406   60.3134 H       1  ZINC000274267583    0.1000
     33 H33        -7.5101    0.2140   59.3427 H       1  ZINC000274267583    0.0900
     34 H34        -8.6849    2.9580   58.6792 H       1  ZINC000274267583    0.0700
     35 H35        -7.1251    2.6998   59.5027 H       1  ZINC000274267583    0.1200
     36 H36        -6.6394    2.0804   55.0078 H       1  ZINC000274267583    0.1400
     37 H37        -7.7940    0.7880   53.2642 H       1  ZINC000274267583    0.1400
     38 H38        -9.0174    0.0514   51.9795 H       1  ZINC000274267583    0.0600
     39 H39        -8.1940   -1.4254   52.5358 H       1  ZINC000274267583    0.0600
     40 H40        -9.7770   -1.5389   51.7297 H       1  ZINC000274267583    0.1000
     41 H41       -10.4134   -0.8435   56.2161 H       1  ZINC000274267583    0.1300
     42 H42       -12.6945    0.5359   60.9020 H       1  ZINC000274267583    0.1500
     43 H43       -12.4726    1.6404   63.0905 H       1  ZINC000274267583    0.1400
@<TRIPOS>BOND
     1     1     2    1
     2     1    26    1
     3     1    27    1
     4     1    28    1
     5     2     3    1
     6     3    25   ar
     7     3     4   ar
     8     4     5   ar
     9     4    29    1
    10     5     6   ar
    11     5    30    1
    12     6     7    1
    13     6    24   ar
    14     7     8    2
    15     7     9    2
    16     7    10   am
    17    10    11    1
    18    10    31    1
    19    11    12    1
    20    11    23    1
    21    11    13    1
    22    13    14    1
    23    13    32    1
    24    13    33    1
    25    14    15    1
    26    14    34    1
    27    14    35    1
    28    15    16    1
    29    16    23   ar
    30    16    17   ar
    31    17    18   ar
    32    17    36    1
    33    18    19   ar
    34    18    37    1
    35    19    20    1
    36    19    22   ar
    37    20    21    1
    38    21    38    1
    39    21    39    1
    40    21    40    1
    41    22    23   ar
    42    22    41    1
    43    24    25   ar
    44    24    42    1
    45    25    43    1
@<TRIPOS>SUBSTRUCTURE
     1 ZINC000274267583        1 TEMP              0 ****  ****    0 ROOT


##########                                Name:    ZINC000192150625
##########                DOCK_Rotatable_Bonds:                   5
##########                         Heavy_Atoms:                  28
##########                    Molecular_Weight:             377.443
##########                DOCK_Rotatable_Bonds:                   5
##########                       Formal_Charge:           0.0199997
##########                     HBond_Acceptors:                   6
##########                        HBond_Donors:                   1
##########                         Heavy_Atoms:                  28
##########                          Grid_Score:          -28.821678
##########                     Grid_vdw_energy:          -27.366892
##########                      Grid_es_energy:           -1.454787
##########           Internal_energy_repulsive:           10.796327

@<TRIPOS>MOLECULE
ZINC000192150625
 51 54 1 0 0
SMALL
USER_CHARGES


@<TRIPOS>ATOM
      1 C1        -13.1074   -2.1516   56.8491 C.3     1  ZINC000192150625   -0.0800
      2 C2        -11.8756   -1.5672   56.2070 C.2     1  ZINC000192150625    0.0400
      3 C3        -11.0694   -0.6620   56.7778 C.2     1  ZINC000192150625   -0.1800
      4 C4        -11.2201   -0.0519   58.1475 C.3     1  ZINC000192150625   -0.0800
      5 C5        -10.0093   -0.3842   55.8008 C.ar    1  ZINC000192150625   -0.1000
      6 C6         -8.8912    0.4471   55.7887 C.ar    1  ZINC000192150625   -0.0700
      7 C7         -8.0715    0.4723   54.6735 C.ar    1  ZINC000192150625    0.1200
      8 N8         -6.9466    1.3035   54.6523 N.am    1  ZINC000192150625   -0.6400
      9 C9         -7.0248    2.5291   54.0971 C.2     1  ZINC000192150625    0.5100
     10 O10        -8.0713    2.9117   53.6156 O.2     1  ZINC000192150625   -0.4900
     11 C11        -5.8238    3.4166   54.0745 C.2     1  ZINC000192150625    0.5100
     12 O12        -5.1581    3.5111   53.0642 O.2     1  ZINC000192150625   -0.5200
     13 N13        -5.4793    4.1125   55.1761 N.am    1  ZINC000192150625   -0.5800
     14 C14        -6.2718    4.0038   56.4085 C.3     1  ZINC000192150625    0.0500
     15 C15        -5.3376    3.6324   57.5644 C.3     1  ZINC000192150625   -0.1200
     16 C16        -4.1958    4.6487   57.6389 C.3     1  ZINC000192150625   -0.0500
     17 C17        -3.2933    4.3059   58.7961 C.ar    1  ZINC000192150625   -0.0300
     18 C18        -3.2910    5.0785   59.9474 C.ar    1  ZINC000192150625   -0.1700
     19 C19        -2.4499    4.7335   60.9883 C.ar    1  ZINC000192150625    0.1000
     20 N20        -1.6563    3.6845   60.8949 N.ar    1  ZINC000192150625   -0.4900
     21 C21        -1.6320    2.9272   59.8155 C.ar    1  ZINC000192150625    0.1000
     22 C22        -2.4498    3.2071   58.7371 C.ar    1  ZINC000192150625   -0.1700
     23 C23        -3.3920    4.6118   56.3372 C.3     1  ZINC000192150625   -0.1200
     24 C24        -4.3006    4.9896   55.1693 C.3     1  ZINC000192150625    0.1100
     25 C25        -8.3649   -0.3293   53.5720 C.ar    1  ZINC000192150625   -0.1100
     26 C26        -9.4687   -1.1532   53.5780 C.ar    1  ZINC000192150625   -0.0800
     27 C27       -10.3025   -1.1914   54.6886 C.ar    1  ZINC000192150625    0.0500
     28 O28       -11.4235   -1.8831   54.9811 O.3     1  ZINC000192150625   -0.1900
     29 H29       -13.5695   -2.8648   56.1664 H       1  ZINC000192150625    0.0800
     30 H30       -12.8296   -2.6600   57.7722 H       1  ZINC000192150625    0.0900
     31 H31       -13.8143   -1.3526   57.0729 H       1  ZINC000192150625    0.0900
     32 H32       -10.6893   -0.6627   58.8777 H       1  ZINC000192150625    0.0700
     33 H33       -10.8033    0.9553   58.1445 H       1  ZINC000192150625    0.0700
     34 H34       -12.2769   -0.0070   58.4109 H       1  ZINC000192150625    0.0700
     35 H35        -8.6659    1.0678   56.6434 H       1  ZINC000192150625    0.1400
     36 H36        -6.1104    0.9978   55.0371 H       1  ZINC000192150625    0.4300
     37 H37        -6.7522    4.9593   56.6195 H       1  ZINC000192150625    0.0700
     38 H38        -7.0300    3.2300   56.2884 H       1  ZINC000192150625    0.1600
     39 H39        -5.8955    3.6426   58.5007 H       1  ZINC000192150625    0.0800
     40 H40        -4.9278    2.6366   57.3953 H       1  ZINC000192150625    0.0700
     41 H41        -4.6076    5.6476   57.7830 H       1  ZINC000192150625    0.0900
     42 H42        -3.9382    5.9392   60.0296 H       1  ZINC000192150625    0.1300
     43 H43        -2.4422    5.3301   61.8885 H       1  ZINC000192150625    0.1600
     44 H44        -0.9684    2.0762   59.7754 H       1  ZINC000192150625    0.1600
     45 H45        -2.4256    2.5830   57.8560 H       1  ZINC000192150625    0.1300
     46 H46        -2.5650    5.3192   56.4000 H       1  ZINC000192150625    0.0800
     47 H47        -3.0005    3.6068   56.1797 H       1  ZINC000192150625    0.0700
     48 H48        -3.7591    4.8689   54.2310 H       1  ZINC000192150625    0.1000
     49 H49        -4.6226    6.0254   55.2770 H       1  ZINC000192150625    0.0800
     50 H50        -7.7210   -0.3039   52.7053 H       1  ZINC000192150625    0.1400
     51 H51        -9.6863   -1.7700   52.7187 H       1  ZINC000192150625    0.1400
@<TRIPOS>BOND
     1     1     2    1
     2     1    29    1
     3     1    30    1
     4     1    31    1
     5     2    28    1
     6     2     3    2
     7     3     4    1
     8     3     5    1
     9     4    32    1
    10     4    33    1
    11     4    34    1
    12     5    27   ar
    13     5     6   ar
    14     6     7   ar
    15     6    35    1
    16     7     8    1
    17     7    25   ar
    18     8     9   am
    19     8    36    1
    20     9    10    2
    21     9    11    1
    22    11    12    2
    23    11    13   am
    24    13    24    1
    25    13    14    1
    26    14    15    1
    27    14    37    1
    28    14    38    1
    29    15    16    1
    30    15    39    1
    31    15    40    1
    32    16    17    1
    33    16    23    1
    34    16    41    1
    35    17    22   ar
    36    17    18   ar
    37    18    19   ar
    38    18    42    1
    39    19    20   ar
    40    19    43    1
    41    20    21   ar
    42    21    22   ar
    43    21    44    1
    44    22    45    1
    45    23    24    1
    46    23    46    1
    47    23    47    1
    48    24    48    1
    49    24    49    1
    50    25    26   ar
    51    25    50    1
    52    26    27   ar
    53    26    51    1
    54    27    28    1
@<TRIPOS>SUBSTRUCTURE
     1 ZINC000192150625        1 TEMP              0 ****  ****    0 ROOT


##########                                Name:    ZINC000655982608
##########                DOCK_Rotatable_Bonds:                   5
##########                         Heavy_Atoms:                  29
##########                    Molecular_Weight:             388.469
##########                DOCK_Rotatable_Bonds:                   5
##########                       Formal_Charge:          -0.0200006
##########                     HBond_Acceptors:                   6
##########                        HBond_Donors:                   0
##########                         Heavy_Atoms:                  29
##########                          Grid_Score:          -28.794714
##########                     Grid_vdw_energy:          -28.044144
##########                      Grid_es_energy:           -0.750571
##########           Internal_energy_repulsive:           49.131123

@<TRIPOS>MOLECULE
ZINC000655982608
 53 57 1 0 0
SMALL
USER_CHARGES


@<TRIPOS>ATOM
      1 C1         -7.4408    4.1461   54.7877 C.3     1  ZINC000655982608   -0.1900
      2 C2         -6.7393    2.8129   54.5206 C.3     1  ZINC000655982608    0.0800
      3 H3         -5.8272    2.7567   55.1148 H       1  ZINC000655982608    0.1000
      4 C4         -7.6701    1.6609   54.9047 C.3     1  ZINC000655982608   -0.0300
      5 C5         -7.8308    1.6231   56.4027 C.2     1  ZINC000655982608    0.2000
      6 N6         -8.8869    1.2161   57.0647 N.2     1  ZINC000655982608   -0.4800
      7 C7         -8.5770    1.3613   58.3654 C.2     1  ZINC000655982608    0.1700
      8 C8         -9.4654    1.0291   59.5365 C.3     1  ZINC000655982608   -0.0100
      9 H9        -10.5135    1.1963   59.2882 H       1  ZINC000655982608    0.1300
     10 C10        -9.2343   -0.4241   60.0115 C.3     1  ZINC000655982608   -0.1400
     11 C11        -9.3571   -0.3462   61.5174 C.2     1  ZINC000655982608    0.5200
     12 O12        -9.5194   -1.2979   62.2513 O.2     1  ZINC000655982608   -0.5000
     13 N13        -9.2596    0.9316   61.9236 N.am    1  ZINC000655982608   -0.5600
     14 C14        -9.3411    1.3440   63.2581 C.ar    1  ZINC000655982608    0.1600
     15 C15        -9.5284    0.4069   64.2659 C.ar    1  ZINC000655982608   -0.1600
     16 C16        -9.6085    0.8172   65.5822 C.ar    1  ZINC000655982608   -0.0900
     17 C17        -9.5030    2.1595   65.8971 C.ar    1  ZINC000655982608   -0.1400
     18 C18        -9.3170    3.0952   64.8961 C.ar    1  ZINC000655982608   -0.0900
     19 C19        -9.2294    2.6906   63.5784 C.ar    1  ZINC000655982608   -0.1600
     20 C20        -9.0575    1.8389   60.7871 C.3     1  ZINC000655982608    0.1100
     21 N21        -7.3707    1.8404   58.4268 N.2     1  ZINC000655982608   -0.3700
     22 O22        -6.9219    1.9926   57.3102 O.3     1  ZINC000655982608    0.0900
     23 N23        -6.4012    2.7145   53.0944 N.3     1  ZINC000655982608   -0.4700
     24 C24        -7.6228    2.6852   52.2609 C.3     1  ZINC000655982608    0.0300
     25 C25        -7.1571    3.3682   50.9545 C.3     1  ZINC000655982608   -0.0800
     26 C26        -6.0107    4.2427   51.4218 C.ar    1  ZINC000655982608   -0.1400
     27 C27        -5.3650    5.3025   50.8212 C.ar    1  ZINC000655982608   -0.0800
     28 C28        -4.3306    5.9460   51.4772 C.ar    1  ZINC000655982608   -0.1400
     29 C29        -3.9457    5.5247   52.7365 C.ar    1  ZINC000655982608   -0.0900
     30 C30        -4.5871    4.4633   53.3409 C.ar    1  ZINC000655982608   -0.1400
     31 C31        -5.6278    3.8079   52.6854 C.ar    1  ZINC000655982608    0.1000
     32 H32        -7.5918    4.2687   55.8601 H       1  ZINC000655982608    0.0700
     33 H33        -6.8243    4.9627   54.4119 H       1  ZINC000655982608    0.0700
     34 H34        -8.4059    4.1567   54.2812 H       1  ZINC000655982608    0.0700
     35 H35        -8.6440    1.8098   54.4384 H       1  ZINC000655982608    0.1200
     36 H36        -7.2431    0.7188   54.5612 H       1  ZINC000655982608    0.1100
     37 H37        -9.9969   -1.0857   59.6004 H       1  ZINC000655982608    0.1200
     38 H38        -8.2388   -0.7647   59.7271 H       1  ZINC000655982608    0.1200
     39 H39        -9.6116   -0.6415   64.0204 H       1  ZINC000655982608    0.1200
     40 H40        -9.7541    0.0890   66.3662 H       1  ZINC000655982608    0.1300
     41 H41        -9.5663    2.4778   66.9272 H       1  ZINC000655982608    0.1200
     42 H42        -9.2356    4.1428   65.1453 H       1  ZINC000655982608    0.1300
     43 H43        -9.0842    3.4219   62.7970 H       1  ZINC000655982608    0.1500
     44 H44        -8.0099    2.1325   60.7206 H       1  ZINC000655982608    0.0900
     45 H45        -9.6910    2.7198   60.8906 H       1  ZINC000655982608    0.1000
     46 H46        -7.9362    1.6588   52.0701 H       1  ZINC000655982608    0.1000
     47 H47        -8.4249    3.2547   52.7303 H       1  ZINC000655982608    0.0700
     48 H48        -6.8091    2.6276   50.2345 H       1  ZINC000655982608    0.0900
     49 H49        -7.9570    3.9748   50.5297 H       1  ZINC000655982608    0.0800
     50 H50        -5.6666    5.6306   49.8375 H       1  ZINC000655982608    0.1200
     51 H51        -3.8246    6.7758   51.0061 H       1  ZINC000655982608    0.1200
     52 H52        -3.1394    6.0283   53.2490 H       1  ZINC000655982608    0.1300
     53 H53        -4.2814    4.1388   54.3245 H       1  ZINC000655982608    0.1200
@<TRIPOS>BOND
     1     1     2    1
     2     1    32    1
     3     1    33    1
     4     1    34    1
     5     2     3    1
     6     2     4    1
     7     2    23    1
     8     4     5    1
     9     4    35    1
    10     4    36    1
    11     5    22    1
    12     5     6    2
    13     6     7    1
    14     7     8    1
    15     7    21    2
    16     8     9    1
    17     8    20    1
    18     8    10    1
    19    10    11    1
    20    10    37    1
    21    10    38    1
    22    11    12    2
    23    11    13   am
    24    13    14    1
    25    13    20    1
    26    14    19   ar
    27    14    15   ar
    28    15    16   ar
    29    15    39    1
    30    16    17   ar
    31    16    40    1
    32    17    18   ar
    33    17    41    1
    34    18    19   ar
    35    18    42    1
    36    19    43    1
    37    20    44    1
    38    20    45    1
    39    21    22    1
    40    23    31    1
    41    23    24    1
    42    24    25    1
    43    24    46    1
    44    24    47    1
    45    25    26    1
    46    25    48    1
    47    25    49    1
    48    26    31   ar
    49    26    27   ar
    50    27    28   ar
    51    27    50    1
    52    28    29   ar
    53    28    51    1
    54    29    30   ar
    55    29    52    1
    56    30    31   ar
    57    30    53    1
@<TRIPOS>SUBSTRUCTURE
     1 ZINC000655982608        1 TEMP              0 ****  ****    0 ROOT


##########                                Name:    ZINC000494558165
##########                DOCK_Rotatable_Bonds:                  11
##########                         Heavy_Atoms:                  28
##########                    Molecular_Weight:             409.506
##########                DOCK_Rotatable_Bonds:                  11
##########                       Formal_Charge:        -6.55651e-07
##########                     HBond_Acceptors:                   9
##########                        HBond_Donors:                   3
##########                         Heavy_Atoms:                  28
##########                          Grid_Score:          -28.789730
##########                     Grid_vdw_energy:          -26.879181
##########                      Grid_es_energy:           -1.910549
##########           Internal_energy_repulsive:           30.744385

@<TRIPOS>MOLECULE
ZINC000494558165
 55 57 1 0 0
SMALL
USER_CHARGES


@<TRIPOS>ATOM
      1 O1         -8.6536   -0.7709   53.0976 O.2     1  ZINC000494558165   -0.4400
      2 C2         -9.0943    0.3206   53.3874 C.2     1  ZINC000494558165    0.5100
      3 C3         -8.4918    1.5618   52.7812 C.3     1  ZINC000494558165    0.0300
      4 N4         -8.1118    2.4942   53.8509 N.3     1  ZINC000494558165   -0.5000
      5 C5         -7.0036    1.9550   54.6503 C.3     1  ZINC000494558165    0.0500
      6 C6         -7.0514    2.5536   56.0576 C.3     1  ZINC000494558165   -0.1100
      7 C7         -7.9183    1.6711   56.9579 C.3     1  ZINC000494558165    0.0800
      8 O8         -7.6475    1.9764   58.3274 O.3     1  ZINC000494558165   -0.5700
      9 C9         -7.7720    3.8141   53.3026 C.3     1  ZINC000494558165    0.1200
     10 H10        -6.8022    4.1406   53.6782 H       1  ZINC000494558165    0.1000
     11 C11        -8.8624    4.8431   53.6689 C.3     1  ZINC000494558165   -0.1200
     12 C12        -9.8042    4.7768   52.4479 C.3     1  ZINC000494558165   -0.0900
     13 C13        -8.9311    4.3211   51.2985 C.ar    1  ZINC000494558165   -0.0900
     14 C14        -9.1417    4.3850   49.9315 C.ar    1  ZINC000494558165   -0.1100
     15 C15        -8.1889    3.8978   49.0578 C.ar    1  ZINC000494558165   -0.1100
     16 C16        -7.0214    3.3448   49.5489 C.ar    1  ZINC000494558165   -0.1200
     17 C17        -6.8094    3.2802   50.9125 C.ar    1  ZINC000494558165   -0.1000
     18 C18        -7.7606    3.7672   51.7897 C.ar    1  ZINC000494558165   -0.1300
     19 N19       -10.1269    0.4237   54.2474 N.am    1  ZINC000494558165   -0.6900
     20 C20       -10.6658   -0.6864   54.7895 C.2     1  ZINC000494558165    0.7000
     21 O21       -10.2197   -1.7803   54.5040 O.2     1  ZINC000494558165   -0.5200
     22 N22       -11.6995   -0.5834   55.6483 N.am    1  ZINC000494558165   -0.7300
     23 C23       -12.2841   -1.7899   56.2389 C.3     1  ZINC000494558165    0.1700
     24 H24       -12.4153   -2.5488   55.4676 H       1  ZINC000494558165    0.1200
     25 C25       -11.3556   -2.3282   57.3417 C.3     1  ZINC000494558165   -0.1400
     26 C26       -12.1723   -3.3813   58.1343 C.3     1  ZINC000494558165   -0.5800
     27 S27       -13.8093   -2.5738   58.3004 S.o2    1  ZINC000494558165    2.4000
     28 O28       -14.8323   -3.5257   58.0422 O.2     1  ZINC000494558165   -0.9300
     29 O29       -13.8386   -1.8108   59.4988 O.2     1  ZINC000494558165   -0.9300
     30 C30       -13.6494   -1.4494   56.8686 C.3     1  ZINC000494558165   -0.6200
     31 H31        -7.6077    1.2917   52.2036 H       1  ZINC000494558165    0.0700
     32 H32        -9.2220    2.0378   52.1268 H       1  ZINC000494558165    0.1200
     33 H33        -7.0950    0.8707   54.7134 H       1  ZINC000494558165    0.0900
     34 H34        -6.0557    2.2128   54.1778 H       1  ZINC000494558165    0.0400
     35 H35        -6.0415    2.6066   56.4644 H       1  ZINC000494558165    0.0700
     36 H36        -7.4778    3.5556   56.0118 H       1  ZINC000494558165    0.0800
     37 H37        -8.9709    1.8582   56.7452 H       1  ZINC000494558165    0.0500
     38 H38        -7.6899    0.6225   56.7674 H       1  ZINC000494558165    0.0400
     39 H39        -8.0602    2.7942   58.6371 H       1  ZINC000494558165    0.3800
     40 H40        -9.3854    4.5464   54.5780 H       1  ZINC000494558165    0.0900
     41 H41        -8.4346    5.8400   53.7745 H       1  ZINC000494558165    0.0800
     42 H42       -10.6029    4.0565   52.6248 H       1  ZINC000494558165    0.0800
     43 H43       -10.2217    5.7616   52.2384 H       1  ZINC000494558165    0.0800
     44 H44       -10.0539    4.8167   49.5470 H       1  ZINC000494558165    0.1200
     45 H45        -8.3561    3.9495   47.9921 H       1  ZINC000494558165    0.1300
     46 H46        -6.2756    2.9631   48.8672 H       1  ZINC000494558165    0.1200
     47 H47        -5.8970    2.8475   51.2954 H       1  ZINC000494558165    0.1200
     48 H48       -10.4822    1.2968   54.4763 H       1  ZINC000494558165    0.4100
     49 H49       -12.0562    0.2895   55.8753 H       1  ZINC000494558165    0.4000
     50 H50       -10.4776   -2.7953   56.8954 H       1  ZINC000494558165    0.1100
     51 H51       -11.0517   -1.5166   58.0028 H       1  ZINC000494558165    0.0900
     52 H52       -12.2548   -4.3108   57.5709 H       1  ZINC000494558165    0.1400
     53 H53       -11.7275   -3.5590   59.1133 H       1  ZINC000494558165    0.1400
     54 H54       -13.6670   -0.4109   57.1992 H       1  ZINC000494558165    0.1500
     55 H55       -14.4498   -1.6330   56.1520 H       1  ZINC000494558165    0.1500
@<TRIPOS>BOND
     1     1     2    2
     2     2     3    1
     3     2    19   am
     4     3     4    1
     5     3    31    1
     6     3    32    1
     7     4     5    1
     8     4     9    1
     9     5     6    1
    10     5    33    1
    11     5    34    1
    12     6     7    1
    13     6    35    1
    14     6    36    1
    15     7     8    1
    16     7    37    1
    17     7    38    1
    18     8    39    1
    19     9    10    1
    20     9    18    1
    21     9    11    1
    22    11    12    1
    23    11    40    1
    24    11    41    1
    25    12    13    1
    26    12    42    1
    27    12    43    1
    28    13    18   ar
    29    13    14   ar
    30    14    15   ar
    31    14    44    1
    32    15    16   ar
    33    15    45    1
    34    16    17   ar
    35    16    46    1
    36    17    18   ar
    37    17    47    1
    38    19    20   am
    39    19    48    1
    40    20    21    2
    41    20    22   am
    42    22    23    1
    43    22    49    1
    44    23    24    1
    45    23    30    1
    46    23    25    1
    47    25    26    1
    48    25    50    1
    49    25    51    1
    50    26    27    1
    51    26    52    1
    52    26    53    1
    53    27    28    2
    54    27    29    2
    55    27    30    1
    56    30    54    1
    57    30    55    1
@<TRIPOS>SUBSTRUCTURE
     1 ZINC000494558165        1 TEMP              0 ****  ****    0 ROOT


##########                                Name:    ZINC001085817863
##########                DOCK_Rotatable_Bonds:                   7
##########                         Heavy_Atoms:                  24
##########                    Molecular_Weight:             326.442
##########                DOCK_Rotatable_Bonds:                   7
##########                       Formal_Charge:           0.0299998
##########                     HBond_Acceptors:                   5
##########                        HBond_Donors:                   0
##########                         Heavy_Atoms:                  24
##########                          Grid_Score:          -28.786448
##########                     Grid_vdw_energy:          -28.002293
##########                      Grid_es_energy:           -0.784154
##########           Internal_energy_repulsive:           14.354323

@<TRIPOS>MOLECULE
ZINC001085817863
 50 52 1 0 0
SMALL
USER_CHARGES


@<TRIPOS>ATOM
      1 C1        -14.8311   -2.6113   56.1503 C.3     1  ZINC001085817863   -0.1400
      2 C2        -14.1722   -1.2322   56.2201 C.3     1  ZINC001085817863   -0.0700
      3 C3        -12.7566   -1.3254   55.7116 C.2     1  ZINC001085817863    0.1100
      4 C4        -11.7165   -1.9433   56.3495 C.2     1  ZINC001085817863   -0.2400
      5 C5        -11.7610   -2.6375   57.6474 C.2     1  ZINC001085817863    0.6000
      6 O6        -11.9463   -3.8388   57.6886 O.2     1  ZINC001085817863   -0.5300
      7 N7        -11.5964   -1.9415   58.7899 N.am    1  ZINC001085817863   -0.6100
      8 C8        -11.6407   -2.6320   60.0811 C.3     1  ZINC001085817863    0.0800
      9 C9        -11.3731   -0.4945   58.7403 C.3     1  ZINC001085817863    0.1300
     10 C10        -9.8698   -0.2103   58.7334 C.3     1  ZINC001085817863    0.0100
     11 H11        -9.2725   -1.1050   58.5576 H       1  ZINC001085817863    0.0800
     12 C12        -9.4752    0.9737   57.8396 C.3     1  ZINC001085817863   -0.1400
     13 C13        -8.4951    1.2850   58.9793 C.3     1  ZINC001085817863    0.0000
     14 N14        -9.4160    0.5805   59.8927 N.3     1  ZINC001085817863   -0.4400
     15 C15        -8.6746   -0.2567   60.8453 C.3     1  ZINC001085817863    0.0700
     16 C16        -9.0525    0.1284   62.2524 C.ar    1  ZINC001085817863   -0.1300
     17 C17        -8.1517   -0.0413   63.2925 C.ar    1  ZINC001085817863   -0.0700
     18 C18        -8.5426    0.3274   64.5708 C.ar    1  ZINC001085817863   -0.1700
     19 C19        -9.8078    0.8482   64.7643 C.ar    1  ZINC001085817863    0.1000
     20 N20       -10.6389    0.9956   63.7508 N.ar    1  ZINC001085817863   -0.4800
     21 C21       -10.2994    0.6608   62.5214 C.ar    1  ZINC001085817863    0.1200
     22 C22       -10.5477   -1.7755   55.4791 C.2     1  ZINC001085817863   -0.1900
     23 C23       -10.9710   -1.0828   54.4069 C.2     1  ZINC001085817863   -0.0200
     24 N24       -12.3022   -0.8195   54.5493 N.pl3   1  ZINC001085817863   -0.4400
     25 C25       -13.1182   -0.0828   53.5811 C.3     1  ZINC001085817863    0.0600
     26 H26       -15.8549   -2.5439   56.5182 H       1  ZINC001085817863    0.0600
     27 H27       -14.8382   -2.9587   55.1172 H       1  ZINC001085817863    0.0500
     28 H28       -14.2693   -3.3139   56.7660 H       1  ZINC001085817863    0.0600
     29 H29       -14.7338   -0.5296   55.6045 H       1  ZINC001085817863    0.0600
     30 H30       -14.1650   -0.8848   57.2533 H       1  ZINC001085817863    0.1100
     31 H31       -10.8714   -3.4038   60.1070 H       1  ZINC001085817863    0.0700
     32 H32       -11.4633   -1.9152   60.8828 H       1  ZINC001085817863    0.0700
     33 H33       -12.6203   -3.0911   60.2142 H       1  ZINC001085817863    0.0600
     34 H34       -11.8239   -0.0881   57.8349 H       1  ZINC001085817863    0.0800
     35 H35       -11.8273   -0.0266   59.6138 H       1  ZINC001085817863    0.1000
     36 H36        -8.9952    0.6862   56.9042 H       1  ZINC001085817863    0.0800
     37 H37       -10.2616    1.7177   57.7115 H       1  ZINC001085817863    0.1000
     38 H38        -7.5304    0.7896   58.8699 H       1  ZINC001085817863    0.0700
     39 H39        -8.4012    2.3497   59.1927 H       1  ZINC001085817863    0.0800
     40 H40        -8.9216   -1.3048   60.6767 H       1  ZINC001085817863    0.0900
     41 H41        -7.6042   -0.1082   60.7030 H       1  ZINC001085817863    0.0500
     42 H42        -7.1691   -0.4514   63.1115 H       1  ZINC001085817863    0.1300
     43 H43        -7.8668    0.2088   65.4049 H       1  ZINC001085817863    0.1300
     44 H44       -10.1200    1.1374   65.7569 H       1  ZINC001085817863    0.1600
     45 H45       -11.0069    0.7960   61.7168 H       1  ZINC001085817863    0.1500
     46 H46        -9.5465   -2.1363   55.6628 H       1  ZINC001085817863    0.1600
     47 H47       -10.3583   -0.7867   53.5682 H       1  ZINC001085817863    0.1600
     48 H48       -13.5457   -0.7804   52.8608 H       1  ZINC001085817863    0.0800
     49 H49       -13.9211    0.4372   54.1037 H       1  ZINC001085817863    0.0900
     50 H50       -12.4951    0.6428   53.0584 H       1  ZINC001085817863    0.0900
@<TRIPOS>BOND
     1     1     2    1
     2     1    26    1
     3     1    27    1
     4     1    28    1
     5     2     3    1
     6     2    29    1
     7     2    30    1
     8     3    24    1
     9     3     4    2
    10     4     5    1
    11     4    22    1
    12     5     6    2
    13     5     7   am
    14     7     8    1
    15     7     9    1
    16     8    31    1
    17     8    32    1
    18     8    33    1
    19     9    10    1
    20     9    34    1
    21     9    35    1
    22    10    11    1
    23    10    14    1
    24    10    12    1
    25    12    13    1
    26    12    36    1
    27    12    37    1
    28    13    14    1
    29    13    38    1
    30    13    39    1
    31    14    15    1
    32    15    16    1
    33    15    40    1
    34    15    41    1
    35    16    21   ar
    36    16    17   ar
    37    17    18   ar
    38    17    42    1
    39    18    19   ar
    40    18    43    1
    41    19    20   ar
    42    19    44    1
    43    20    21   ar
    44    21    45    1
    45    22    23    2
    46    22    46    1
    47    23    24    1
    48    23    47    1
    49    24    25    1
    50    25    48    1
    51    25    49    1
    52    25    50    1
@<TRIPOS>SUBSTRUCTURE
     1 ZINC001085817863        1 TEMP              0 ****  ****    0 ROOT


##########                                Name:    ZINC000516003207
##########                DOCK_Rotatable_Bonds:                   5
##########                         Heavy_Atoms:                  24
##########                    Molecular_Weight:             342.462
##########                DOCK_Rotatable_Bonds:                   5
##########                       Formal_Charge:          -0.0200001
##########                     HBond_Acceptors:                   5
##########                        HBond_Donors:                   1
##########                         Heavy_Atoms:                  24
##########                          Grid_Score:          -28.766573
##########                     Grid_vdw_energy:          -28.833199
##########                      Grid_es_energy:            0.066626
##########           Internal_energy_repulsive:            6.954497

@<TRIPOS>MOLECULE
ZINC000516003207
 46 49 1 0 0
SMALL
USER_CHARGES


@<TRIPOS>ATOM
      1 C1         -7.4411    3.8283   51.7618 C.3     1  ZINC000516003207    0.0300
      2 O2         -8.3878    2.8615   52.2214 O.3     1  ZINC000516003207   -0.3600
      3 C3         -7.8033    1.7673   52.9307 C.3     1  ZINC000516003207    0.0900
      4 H4         -6.9500    1.3323   52.4104 H       1  ZINC000516003207    0.0800
      5 C5         -7.5338    2.0674   54.4164 C.3     1  ZINC000516003207   -0.1700
      6 C6         -8.9522    1.5429   54.7044 C.3     1  ZINC000516003207    0.1500
      7 H7         -9.7210    2.3144   54.6619 H       1  ZINC000516003207    0.1200
      8 N8         -9.0399    0.7170   55.9113 N.am    1  ZINC000516003207   -0.7200
      9 C9         -9.2738    1.2937   57.1068 C.2     1  ZINC000516003207    0.5600
     10 O10        -9.4136    2.4987   57.1834 O.2     1  ZINC000516003207   -0.5300
     11 C11        -9.3606    0.4604   58.3252 C.ar    1  ZINC000516003207   -0.1400
     12 C12        -9.6764   -0.8959   58.2244 C.ar    1  ZINC000516003207   -0.0800
     13 C13        -9.7580   -1.6742   59.3619 C.ar    1  ZINC000516003207   -0.1200
     14 C14        -9.5277   -1.1175   60.6046 C.ar    1  ZINC000516003207   -0.0800
     15 C15        -9.2110    0.2361   60.7186 C.ar    1  ZINC000516003207   -0.0300
     16 C16        -8.9642    0.8314   62.0549 C.2     1  ZINC000516003207    0.1100
     17 C17        -9.1793    2.1339   62.3288 C.2     1  ZINC000516003207   -0.2600
     18 S18        -8.7603    2.4077   64.0179 S.3     1  ZINC000516003207    0.1400
     19 C19        -8.3396    0.7606   64.1941 C.2     1  ZINC000516003207    0.0600
     20 C20        -7.8359    0.1341   65.4689 C.3     1  ZINC000516003207   -0.0800
     21 N21        -8.5182    0.1286   63.0860 N.2     1  ZINC000516003207   -0.4700
     22 C22        -9.1217    1.0256   59.5769 C.ar    1  ZINC000516003207   -0.0300
     23 C23        -8.8219    0.7328   53.4105 C.3     1  ZINC000516003207   -0.1100
     24 C24       -10.0503    0.3818   52.5703 C.3     1  ZINC000516003207   -0.1200
     25 C25        -9.2830   -0.8790   52.1324 C.3     1  ZINC000516003207   -0.1400
     26 C26        -8.4824   -0.7578   53.4418 C.3     1  ZINC000516003207   -0.1200
     27 H27        -6.7316    3.3497   51.0867 H       1  ZINC000516003207    0.0400
     28 H28        -7.9636    4.6260   51.2337 H       1  ZINC000516003207    0.0900
     29 H29        -6.9060    4.2467   52.6143 H       1  ZINC000516003207    0.0400
     30 H30        -6.7451    1.4521   54.8495 H       1  ZINC000516003207    0.0900
     31 H31        -7.4093    3.1287   54.6312 H       1  ZINC000516003207    0.0800
     32 H32        -8.9297   -0.2447   55.8500 H       1  ZINC000516003207    0.4000
     33 H33        -9.8574   -1.3368   57.2554 H       1  ZINC000516003207    0.1300
     34 H34       -10.0032   -2.7228   59.2795 H       1  ZINC000516003207    0.1400
     35 H35        -9.5935   -1.7317   61.4906 H       1  ZINC000516003207    0.1300
     36 H36        -9.5436    2.8775   61.6355 H       1  ZINC000516003207    0.1800
     37 H37        -7.7837    0.8922   66.2502 H       1  ZINC000516003207    0.0800
     38 H38        -8.5165   -0.6595   65.7773 H       1  ZINC000516003207    0.0900
     39 H39        -6.8432   -0.2836   65.3009 H       1  ZINC000516003207    0.0900
     40 H40        -8.8768    2.0741   59.6604 H       1  ZINC000516003207    0.1500
     41 H41       -10.9396    0.1687   53.1635 H       1  ZINC000516003207    0.0800
     42 H42       -10.2395    1.0832   51.7577 H       1  ZINC000516003207    0.0800
     43 H43        -9.9049   -1.7726   52.0827 H       1  ZINC000516003207    0.0700
     44 H44        -8.6789   -0.7327   51.2369 H       1  ZINC000516003207    0.0800
     45 H45        -7.4190   -0.9667   53.3253 H       1  ZINC000516003207    0.0700
     46 H46        -8.9310   -1.2912   54.2798 H       1  ZINC000516003207    0.0900
@<TRIPOS>BOND
     1     1     2    1
     2     1    27    1
     3     1    28    1
     4     1    29    1
     5     2     3    1
     6     3     4    1
     7     3    23    1
     8     3     5    1
     9     5     6    1
    10     5    30    1
    11     5    31    1
    12     6     7    1
    13     6     8    1
    14     6    23    1
    15     8     9   am
    16     8    32    1
    17     9    10    2
    18     9    11    1
    19    11    22   ar
    20    11    12   ar
    21    12    13   ar
    22    12    33    1
    23    13    14   ar
    24    13    34    1
    25    14    15   ar
    26    14    35    1
    27    15    16    1
    28    15    22   ar
    29    16    21    1
    30    16    17    2
    31    17    18    1
    32    17    36    1
    33    18    19    1
    34    19    20    1
    35    19    21    2
    36    20    37    1
    37    20    38    1
    38    20    39    1
    39    22    40    1
    40    23    26    1
    41    23    24    1
    42    24    25    1
    43    24    41    1
    44    24    42    1
    45    25    26    1
    46    25    43    1
    47    25    44    1
    48    26    45    1
    49    26    46    1
@<TRIPOS>SUBSTRUCTURE
     1 ZINC000516003207        1 TEMP              0 ****  ****    0 ROOT


##########                                Name:    ZINC000012979878
##########                DOCK_Rotatable_Bonds:                   7
##########                         Heavy_Atoms:                  26
##########                    Molecular_Weight:             388.874
##########                DOCK_Rotatable_Bonds:                   7
##########                       Formal_Charge:          -0.0100003
##########                     HBond_Acceptors:                   7
##########                        HBond_Donors:                   1
##########                         Heavy_Atoms:                  26
##########                          Grid_Score:          -28.756401
##########                     Grid_vdw_energy:          -25.984558
##########                      Grid_es_energy:           -2.771844
##########           Internal_energy_repulsive:            9.533969

@<TRIPOS>MOLECULE
ZINC000012979878
 43 45 1 0 0
SMALL
USER_CHARGES


@<TRIPOS>ATOM
      1 C1         -5.3383    3.7270   57.3919 C.3     1  <0>         0.0300
      2 O2         -4.6164    3.8841   58.6152 O.3     1  <0>        -0.3100
      3 C3         -3.2629    3.7800   58.5506 C.ar    1  <0>         0.1500
      4 C4         -2.5001    3.9210   59.7012 C.ar    1  <0>        -0.2200
      5 C5         -1.1234    3.8158   59.6372 C.ar    1  <0>        -0.0600
      6 C6         -0.5026    3.5697   58.4284 C.ar    1  <0>        -0.1800
      7 C7         -1.2613    3.4275   57.2729 C.ar    1  <0>         0.1800
      8 N8         -0.6327    3.1783   56.0489 N.am    1  <0>        -0.6700
      9 C9         -0.4769    4.1757   55.1559 C.2     1  <0>         0.6000
     10 O10        -0.8832    5.2932   55.4149 O.2     1  <0>        -0.4900
     11 C11         0.1824    3.9144   53.8723 C.2     1  <0>        -0.3000
     12 C12        -0.3072    4.2208   52.6446 C.2     1  <0>         0.1600
     13 C13        -1.6399    4.8938   52.4391 C.3     1  <0>        -0.0900
     14 N14         0.4789    3.8820   51.6537 N.2     1  <0>        -0.4500
     15 C15         1.6005    3.3097   51.9530 C.2     1  <0>         0.0600
     16 C16         2.6273    2.8520   50.9494 C.3     1  <0>         0.1300
     17 O17         2.9750    1.4908   51.2106 O.3     1  <0>        -0.3000
     18 C18         2.2300    0.5347   50.5954 C.ar    1  <0>         0.1300
     19 C19         2.5493    0.1267   49.3086 C.ar    1  <0>        -0.2000
     20 C20         1.7910   -0.8451   48.6849 C.ar    1  <0>        -0.0700
     21 C21         0.7133   -1.4112   49.3428 C.ar    1  <0>        -0.0700
     22 Cl22       -0.2384   -2.6319   48.5569 Cl      1  <0>        -0.0700
     23 C23         0.3937   -1.0058   50.6265 C.ar    1  <0>        -0.0700
     24 C24         1.1530   -0.0384   51.2557 C.ar    1  <0>        -0.1300
     25 S25         1.7556    3.1531   53.6483 S.3     1  <0>         0.2000
     26 C26        -2.6439    3.5272   57.3364 C.ar    1  <0>        -0.1500
     27 H27        -5.0195    4.4897   56.6814 H       1  <0>         0.0600
     28 H28        -5.1401    2.7386   56.9774 H       1  <0>         0.0600
     29 H29        -6.4061    3.8329   57.5840 H       1  <0>         0.1000
     30 H30        -2.9829    4.1136   60.6480 H       1  <0>         0.1300
     31 H31        -0.5322    3.9268   60.5341 H       1  <0>         0.1300
     32 H32         0.5733    3.4879   58.3810 H       1  <0>         0.1300
     33 H33        -0.3088    2.2876   55.8424 H       1  <0>         0.4100
     34 H34        -1.5042    5.9754   52.4367 H       1  <0>         0.0900
     35 H35        -2.0628    4.5787   51.4851 H       1  <0>         0.0800
     36 H36        -2.3164    4.6142   53.2466 H       1  <0>         0.1000
     37 H37         2.2147    2.9350   49.9439 H       1  <0>         0.0900
     38 H38         3.5173    3.4762   51.0297 H       1  <0>         0.1000
     39 H39         3.3898    0.5688   48.7944 H       1  <0>         0.1400
     40 H40         2.0392   -1.1631   47.6831 H       1  <0>         0.1400
     41 H41        -0.4476   -1.4491   51.1386 H       1  <0>         0.1400
     42 H42         0.9032    0.2778   52.2577 H       1  <0>         0.1400
     43 H43        -3.2360    3.4167   56.4400 H       1  <0>         0.1400
@<TRIPOS>BOND
     1     1     2    1
     2     1    27    1
     3     1    28    1
     4     1    29    1
     5     2     3    1
     6     3    26   ar
     7     3     4   ar
     8     4     5   ar
     9     4    30    1
    10     5     6   ar
    11     5    31    1
    12     6     7   ar
    13     6    32    1
    14     7     8    1
    15     7    26   ar
    16     8     9   am
    17     8    33    1
    18     9    10    2
    19     9    11    1
    20    11    25    1
    21    11    12    2
    22    12    13    1
    23    12    14    1
    24    13    34    1
    25    13    35    1
    26    13    36    1
    27    14    15    2
    28    15    16    1
    29    15    25    1
    30    16    17    1
    31    16    37    1
    32    16    38    1
    33    17    18    1
    34    18    24   ar
    35    18    19   ar
    36    19    20   ar
    37    19    39    1
    38    20    21   ar
    39    20    40    1
    40    21    22    1
    41    21    23   ar
    42    23    24   ar
    43    23    41    1
    44    24    42    1
    45    26    43    1
@<TRIPOS>SUBSTRUCTURE
     1 <0>         1 TEMP              0 ****  ****    0 ROOT


##########                                Name:    ZINC000286156371
##########                DOCK_Rotatable_Bonds:                   7
##########                         Heavy_Atoms:                  25
##########                    Molecular_Weight:             350.418
##########                DOCK_Rotatable_Bonds:                   7
##########                       Formal_Charge:          0.00999908
##########                     HBond_Acceptors:                   8
##########                        HBond_Donors:                   2
##########                         Heavy_Atoms:                  25
##########                          Grid_Score:          -28.748562
##########                     Grid_vdw_energy:          -27.351177
##########                      Grid_es_energy:           -1.397384
##########           Internal_energy_repulsive:           23.101070

@<TRIPOS>MOLECULE
ZINC000286156371
 51 53 1 0 0
SMALL
USER_CHARGES


@<TRIPOS>ATOM
      1 C1        -13.2587    0.1232   59.1821 C.3     1  <0>        -0.1800
      2 C2        -13.5222   -1.1792   59.9408 C.3     1  <0>         0.1400
      3 C3        -14.9264   -1.1410   60.5471 C.3     1  <0>        -0.1800
      4 C4        -13.4151   -2.3619   58.9761 C.3     1  <0>        -0.1400
      5 O5        -12.5413   -1.3287   61.0007 O.3     1  <0>        -0.3600
      6 C6        -12.2238   -0.2230   61.7003 C.2     1  <0>         0.6800
      7 O7        -13.0963    0.5499   62.0438 O.2     1  <0>        -0.5600
      8 N8        -10.9385    0.0266   62.0196 N.am    1  <0>        -0.5800
      9 C9        -10.4527    1.1937   62.7781 C.3     1  <0>         0.0700
     10 C10        -9.1110    0.7322   63.3998 C.3     1  <0>         0.0900
     11 H11        -8.4608    1.5833   63.6020 H       1  <0>         0.0900
     12 O12        -9.3326   -0.0329   64.5862 O.3     1  <0>        -0.5500
     13 C13        -8.5308   -0.1539   62.2659 C.3     1  <0>        -0.1200
     14 C14        -9.7893   -0.8232   61.6747 C.3     1  <0>         0.1500
     15 H15        -9.9158   -1.8177   62.1024 H       1  <0>         0.1100
     16 C16        -9.6613   -0.9221   60.1764 C.2     1  <0>         0.5200
     17 O17        -9.4424   -1.9956   59.6561 O.2     1  <0>        -0.4900
     18 N18        -9.7899    0.1824   59.4148 N.am    1  <0>        -0.6300
     19 C19        -9.6725    0.0901   58.0212 C.2     1  <0>         0.3000
     20 N20       -10.2447   -0.8126   57.2569 N.2     1  <0>        -0.3200
     21 N21        -9.8781   -0.5564   55.9338 N.pl3   1  <0>        -0.3600
     22 C22       -10.2789   -1.3027   54.7371 C.3     1  <0>         0.1400
     23 C23       -10.0113   -0.4361   53.5021 C.3     1  <0>        -0.1400
     24 C24        -8.5756    0.0951   53.5499 C.3     1  <0>        -0.1300
     25 C25        -8.4558    1.1234   54.6824 C.3     1  <0>        -0.0600
     26 C26        -9.0674    0.5272   55.9263 C.2     1  <0>         0.0900
     27 C27        -8.9269    0.9511   57.1971 C.2     1  <0>        -0.2600
     28 H28       -13.3351    0.9658   59.8693 H       1  <0>         0.0900
     29 H29       -12.2584    0.0960   58.7502 H       1  <0>         0.0600
     30 H30       -13.9952    0.2354   58.3864 H       1  <0>         0.0700
     31 H31       -15.6628   -1.0288   59.7514 H       1  <0>         0.0700
     32 H32       -15.1142   -2.0689   61.0875 H       1  <0>         0.0600
     33 H33       -15.0028   -0.2984   61.2343 H       1  <0>         0.0900
     34 H34       -12.4147   -2.3891   58.5442 H       1  <0>         0.0700
     35 H35       -13.6028   -3.2896   59.5166 H       1  <0>         0.0700
     36 H36       -14.1516   -2.2496   58.1804 H       1  <0>         0.0800
     37 H37       -10.2900    2.0394   62.1098 H       1  <0>         0.0800
     38 H38       -11.1624    1.4592   63.5616 H       1  <0>         0.0900
     39 H39       -10.1173    0.2332   65.0849 H       1  <0>         0.3900
     40 H40        -8.0272    0.4581   61.5176 H       1  <0>         0.1000
     41 H41        -7.8524   -0.9044   62.6719 H       1  <0>         0.1100
     42 H42        -9.9638    1.0411   59.8310 H       1  <0>         0.4200
     43 H43        -9.6995   -2.2236   54.6700 H       1  <0>         0.0800
     44 H44       -11.3411   -1.5403   54.7936 H       1  <0>         0.0900
     45 H45       -10.1467   -1.0354   52.6017 H       1  <0>         0.0900
     46 H46       -10.7082    0.4019   53.4885 H       1  <0>         0.0800
     47 H47        -7.8878   -0.7303   53.7332 H       1  <0>         0.0700
     48 H48        -8.3311    0.5699   52.5997 H       1  <0>         0.0800
     49 H49        -7.4053    1.3518   54.8622 H       1  <0>         0.0900
     50 H50        -8.9895    2.0341   54.4103 H       1  <0>         0.0900
     51 H51        -8.3439    1.7993   57.5245 H       1  <0>         0.1700
@<TRIPOS>BOND
     1     1     2    1
     2     1    28    1
     3     1    29    1
     4     1    30    1
     5     2     3    1
     6     2     4    1
     7     2     5    1
     8     3    31    1
     9     3    32    1
    10     3    33    1
    11     4    34    1
    12     4    35    1
    13     4    36    1
    14     5     6    1
    15     6     7    2
    16     6     8   am
    17     8    14    1
    18     8     9    1
    19     9    10    1
    20     9    37    1
    21     9    38    1
    22    10    11    1
    23    10    12    1
    24    10    13    1
    25    12    39    1
    26    13    14    1
    27    13    40    1
    28    13    41    1
    29    14    15    1
    30    14    16    1
    31    16    17    2
    32    16    18   am
    33    18    19    1
    34    18    42    1
    35    19    27    1
    36    19    20    2
    37    20    21    1
    38    21    26    1
    39    21    22    1
    40    22    23    1
    41    22    43    1
    42    22    44    1
    43    23    24    1
    44    23    45    1
    45    23    46    1
    46    24    25    1
    47    24    47    1
    48    24    48    1
    49    25    26    1
    50    25    49    1
    51    25    50    1
    52    26    27    2
    53    27    51    1
@<TRIPOS>SUBSTRUCTURE
     1 <0>         1 TEMP              0 ****  ****    0 ROOT


##########                                Name:    ZINC001291841503
##########                DOCK_Rotatable_Bonds:                   7
##########                         Heavy_Atoms:                  28
##########                    Molecular_Weight:             397.544
##########                DOCK_Rotatable_Bonds:                   7
##########                       Formal_Charge:         -0.00999964
##########                     HBond_Acceptors:                   7
##########                        HBond_Donors:                   0
##########                         Heavy_Atoms:                  28
##########                          Grid_Score:          -28.739359
##########                     Grid_vdw_energy:          -29.720928
##########                      Grid_es_energy:            0.981570
##########           Internal_energy_repulsive:           17.242357

@<TRIPOS>MOLECULE
ZINC001291841503
 55 58 1 0 0
SMALL
USER_CHARGES


@<TRIPOS>ATOM
      1 C1         -8.0164    2.1194   56.3608 C.3     1  ZINC001291841503   -0.1500
      2 C2         -8.2800    2.4026   57.8412 C.3     1  ZINC001291841503   -0.1100
      3 C3         -8.8992    1.1657   58.4948 C.3     1  ZINC001291841503    0.0500
      4 H4         -8.2911    0.2906   58.2654 H       1  ZINC001291841503    0.0900
      5 C5         -8.9548    1.3612   59.9880 C.2     1  ZINC001291841503    0.2000
      6 N6         -8.9086    2.4998   60.6199 N.2     1  ZINC001291841503   -0.2700
      7 N7         -8.9798    2.3032   61.8881 N.2     1  ZINC001291841503   -0.3100
      8 C8         -9.0761    1.0181   62.1353 C.2     1  ZINC001291841503    0.3600
      9 N9         -9.1726    0.4243   63.3838 N.3     1  ZINC001291841503   -0.4500
     10 C10        -7.8609   -0.0513   63.8433 C.3     1  ZINC001291841503    0.0200
     11 C11        -9.7703    1.3450   64.3599 C.3     1  ZINC001291841503    0.0700
     12 H12        -9.1951    2.2688   64.4220 H       1  ZINC001291841503    0.0800
     13 C13       -11.2532    1.6402   64.0051 C.3     1  ZINC001291841503   -0.1400
     14 C14       -11.8346    1.9521   65.4071 C.3     1  ZINC001291841503    0.0500
     15 O15       -11.1543    1.0584   66.3027 O.3     1  ZINC001291841503   -0.3800
     16 C16        -9.8869    0.6761   65.7464 C.3     1  ZINC001291841503    0.0600
     17 N17        -9.0690    0.3773   60.9307 N.pl3   1  ZINC001291841503   -0.4700
     18 C18        -9.1560   -1.0662   60.6962 C.3     1  ZINC001291841503    0.1900
     19 C19       -10.5983   -1.4577   60.5018 C.2     1  ZINC001291841503   -0.2700
     20 C20       -11.0395   -2.5247   59.8290 C.2     1  ZINC001291841503    0.0800
     21 N21       -12.3511   -2.6496   59.8017 N.2     1  ZINC001291841503   -0.4800
     22 C22       -13.0408   -1.7474   60.4141 C.2     1  ZINC001291841503    0.0500
     23 C23       -14.5453   -1.7184   60.4943 C.3     1  ZINC001291841503   -0.0800
     24 S24       -12.0004   -0.5935   61.1278 S.3     1  ZINC001291841503    0.1800
     25 C25       -10.2942    0.9615   57.9627 C.ar    1  ZINC001291841503   -0.0900
     26 C26       -10.5693   -0.1142   57.1391 C.ar    1  ZINC001291841503   -0.0900
     27 C27       -11.8489   -0.3016   56.6510 C.ar    1  ZINC001291841503   -0.1200
     28 C28       -12.8536    0.5864   56.9868 C.ar    1  ZINC001291841503   -0.1200
     29 C29       -12.5789    1.6616   57.8111 C.ar    1  ZINC001291841503   -0.1200
     30 C30       -11.3002    1.8465   58.3027 C.ar    1  ZINC001291841503   -0.1100
     31 H31        -7.3301    1.2776   56.2687 H       1  ZINC001291841503    0.0500
     32 H32        -8.9562    1.8779   55.8643 H       1  ZINC001291841503    0.0500
     33 H33        -7.5753    3.0006   55.8952 H       1  ZINC001291841503    0.0600
     34 H34        -7.3403    2.6440   58.3379 H       1  ZINC001291841503    0.0800
     35 H35        -8.9663    3.2444   57.9334 H       1  ZINC001291841503    0.0800
     36 H36        -7.1993    0.8011   63.9988 H       1  ZINC001291841503    0.0500
     37 H37        -7.9794   -0.5948   64.7807 H       1  ZINC001291841503    0.0900
     38 H38        -7.4304   -0.7129   63.0917 H       1  ZINC001291841503    0.0700
     39 H39       -11.3350    2.5036   63.3450 H       1  ZINC001291841503    0.0900
     40 H40       -11.7337    0.7657   63.5663 H       1  ZINC001291841503    0.0800
     41 H41       -11.6310    2.9878   65.6792 H       1  ZINC001291841503    0.0700
     42 H42       -12.9074    1.7598   65.4233 H       1  ZINC001291841503    0.0900
     43 H43        -9.8433   -0.4075   65.6360 H       1  ZINC001291841503    0.0800
     44 H44        -9.0802    1.0156   66.3961 H       1  ZINC001291841503    0.0700
     45 H45        -8.5861   -1.3243   59.8036 H       1  ZINC001291841503    0.1100
     46 H46        -8.7475   -1.5990   61.5548 H       1  ZINC001291841503    0.1100
     47 H47       -10.3755   -3.2272   59.3472 H       1  ZINC001291841503    0.1700
     48 H48       -14.8729   -2.2700   61.3756 H       1  ZINC001291841503    0.0900
     49 H49       -14.8857   -0.6854   60.5650 H       1  ZINC001291841503    0.0800
     50 H50       -14.9659   -2.1791   59.6004 H       1  ZINC001291841503    0.0900
     51 H51        -9.7842   -0.8080   56.8768 H       1  ZINC001291841503    0.1300
     52 H52       -12.0635   -1.1416   56.0070 H       1  ZINC001291841503    0.1200
     53 H53       -13.8532    0.4404   56.6049 H       1  ZINC001291841503    0.1200
     54 H54       -13.3638    2.3555   58.0732 H       1  ZINC001291841503    0.1200
     55 H55       -11.0855    2.6865   58.9468 H       1  ZINC001291841503    0.1200
@<TRIPOS>BOND
     1     1     2    1
     2     1    31    1
     3     1    32    1
     4     1    33    1
     5     2     3    1
     6     2    34    1
     7     2    35    1
     8     3     4    1
     9     3     5    1
    10     3    25    1
    11     5    17    1
    12     5     6    2
    13     6     7    1
    14     7     8    2
    15     8     9    1
    16     8    17    1
    17     9    10    1
    18     9    11    1
    19    10    36    1
    20    10    37    1
    21    10    38    1
    22    11    12    1
    23    11    16    1
    24    11    13    1
    25    13    14    1
    26    13    39    1
    27    13    40    1
    28    14    15    1
    29    14    41    1
    30    14    42    1
    31    15    16    1
    32    16    43    1
    33    16    44    1
    34    17    18    1
    35    18    19    1
    36    18    45    1
    37    18    46    1
    38    19    24    1
    39    19    20    2
    40    20    21    1
    41    20    47    1
    42    21    22    2
    43    22    23    1
    44    22    24    1
    45    23    48    1
    46    23    49    1
    47    23    50    1
    48    25    30   ar
    49    25    26   ar
    50    26    27   ar
    51    26    51    1
    52    27    28   ar
    53    27    52    1
    54    28    29   ar
    55    28    53    1
    56    29    30   ar
    57    29    54    1
    58    30    55    1
@<TRIPOS>SUBSTRUCTURE
     1 ZINC001291841503        1 TEMP              0 ****  ****    0 ROOT


##########                                Name:    ZINC000470948647
##########                DOCK_Rotatable_Bonds:                   6
##########                         Heavy_Atoms:                  29
##########                    Molecular_Weight:             412.556
##########                DOCK_Rotatable_Bonds:                   6
##########                       Formal_Charge:           0.0100001
##########                     HBond_Acceptors:                   7
##########                        HBond_Donors:                   1
##########                         Heavy_Atoms:                  29
##########                          Grid_Score:          -28.725620
##########                     Grid_vdw_energy:          -27.799973
##########                      Grid_es_energy:           -0.925648
##########           Internal_energy_repulsive:           13.994414

@<TRIPOS>MOLECULE
ZINC000470948647
 57 60 1 0 0
SMALL
USER_CHARGES


@<TRIPOS>ATOM
      1 C1         -9.4107   -0.7744   60.9192 C.3     1  ZINC000470948647   -0.1100
      2 C2         -9.7079   -0.5282   59.4625 C.ar    1  ZINC000470948647   -0.1000
      3 C3         -8.7580    0.0714   58.6565 C.ar    1  ZINC000470948647   -0.1100
      4 C4         -9.0273    0.2985   57.3208 C.ar    1  ZINC000470948647   -0.1100
      5 C5        -10.2533   -0.0766   56.7878 C.ar    1  ZINC000470948647    0.1400
      6 N6        -10.5291    0.1516   55.4351 N.am    1  ZINC000470948647   -0.6700
      7 C7        -10.2143   -0.7827   54.5163 C.2     1  ZINC000470948647    0.5100
      8 O8         -9.6919   -1.8214   54.8619 O.2     1  ZINC000470948647   -0.4800
      9 C9        -10.5113   -0.5371   53.0593 C.3     1  ZINC000470948647    0.1200
     10 H10       -10.0213   -1.3102   52.4675 H       1  ZINC000470948647    0.1200
     11 C11       -12.0380   -0.6362   52.8399 C.3     1  ZINC000470948647   -0.0700
     12 S12       -12.5248    1.1400   52.8759 S.3     1  ZINC000470948647   -0.2500
     13 C13       -10.9400    1.7195   52.1404 C.3     1  ZINC000470948647    0.1600
     14 N14        -9.9647    0.7575   52.6824 N.am    1  ZINC000470948647   -0.6000
     15 C15        -8.6567    1.0532   52.8176 C.2     1  ZINC000470948647    0.6300
     16 O16        -7.8899    0.2249   53.2693 O.2     1  ZINC000470948647   -0.5100
     17 C17        -8.1548    2.3833   52.4169 C.2     1  ZINC000470948647   -0.0100
     18 N18        -8.1730    2.8953   51.2024 N.2     1  ZINC000470948647   -0.2700
     19 N19        -7.6566    4.0716   51.2121 N.pl3   1  ZINC000470948647   -0.2700
     20 C20        -7.5140    4.9337   50.0362 C.3     1  ZINC000470948647    0.1500
     21 C21        -8.5663    4.5519   48.9932 C.3     1  ZINC000470948647   -0.1300
     22 C22        -8.4174    5.4524   47.7652 C.3     1  ZINC000470948647   -0.1200
     23 C23        -8.6137    6.9128   48.1768 C.3     1  ZINC000470948647   -0.1300
     24 C24        -7.5614    7.2946   49.2198 C.3     1  ZINC000470948647   -0.1200
     25 C25        -7.7103    6.3942   50.4478 C.3     1  ZINC000470948647   -0.1300
     26 C26        -7.2642    4.3991   52.4620 C.2     1  ZINC000470948647   -0.0100
     27 C27        -7.5687    3.3527   53.2649 C.2     1  ZINC000470948647   -0.1700
     28 C28       -11.2054   -0.6792   57.6001 C.ar    1  ZINC000470948647   -0.1100
     29 C29       -12.5371   -1.0882   57.0256 C.3     1  ZINC000470948647   -0.1100
     30 C30       -10.9280   -0.9078   58.9334 C.ar    1  ZINC000470948647   -0.1000
     31 H31        -8.9504   -1.7557   61.0354 H       1  ZINC000470948647    0.0700
     32 H32        -8.7284   -0.0073   61.2855 H       1  ZINC000470948647    0.0700
     33 H33       -10.3384   -0.7384   61.4905 H       1  ZINC000470948647    0.0700
     34 H34        -7.8046    0.3629   59.0716 H       1  ZINC000470948647    0.1200
     35 H35        -8.2852    0.7676   56.6918 H       1  ZINC000470948647    0.1400
     36 H36       -10.9470    0.9823   55.1586 H       1  ZINC000470948647    0.4100
     37 H37       -12.2663   -1.0852   51.8732 H       1  ZINC000470948647    0.1200
     38 H38       -12.5148   -1.1894   53.6490 H       1  ZINC000470948647    0.1200
     39 H39       -10.9759    1.6645   51.0524 H       1  ZINC000470948647    0.1000
     40 H40       -10.7082    2.7323   52.4700 H       1  ZINC000470948647    0.1400
     41 H41        -6.5184    4.8068   49.6112 H       1  ZINC000470948647    0.1100
     42 H42        -8.4264    3.5114   48.7000 H       1  ZINC000470948647    0.0800
     43 H43        -9.5620    4.6789   49.4183 H       1  ZINC000470948647    0.0800
     44 H44        -7.4217    5.3253   47.3401 H       1  ZINC000470948647    0.0700
     45 H45        -9.1671    5.1803   47.0221 H       1  ZINC000470948647    0.0800
     46 H46        -8.5076    7.5542   47.3020 H       1  ZINC000470948647    0.0700
     47 H47        -9.6094    7.0398   48.6019 H       1  ZINC000470948647    0.0700
     48 H48        -6.5658    7.1676   48.7948 H       1  ZINC000470948647    0.0700
     49 H49        -7.7014    8.3350   49.5130 H       1  ZINC000470948647    0.0700
     50 H50        -8.7060    6.5211   50.8729 H       1  ZINC000470948647    0.0700
     51 H51        -6.9607    6.6661   51.1909 H       1  ZINC000470948647    0.0700
     52 H52        -6.7988    5.3252   52.7653 H       1  ZINC000470948647    0.1800
     53 H53        -7.3942    3.2718   54.3276 H       1  ZINC000470948647    0.1600
     54 H54       -12.4734   -2.1106   56.6529 H       1  ZINC000470948647    0.0700
     55 H55       -13.3004   -1.0314   57.8016 H       1  ZINC000470948647    0.0700
     56 H56       -12.8007   -0.4188   56.2068 H       1  ZINC000470948647    0.0600
     57 H57       -11.6677   -1.3765   59.5655 H       1  ZINC000470948647    0.1300
@<TRIPOS>BOND
     1     1     2    1
     2     1    31    1
     3     1    32    1
     4     1    33    1
     5     2    30   ar
     6     2     3   ar
     7     3     4   ar
     8     3    34    1
     9     4     5   ar
    10     4    35    1
    11     5     6    1
    12     5    28   ar
    13     6     7   am
    14     6    36    1
    15     7     8    2
    16     7     9    1
    17     9    10    1
    18     9    14    1
    19     9    11    1
    20    11    12    1
    21    11    37    1
    22    11    38    1
    23    12    13    1
    24    13    14    1
    25    13    39    1
    26    13    40    1
    27    14    15   am
    28    15    16    2
    29    15    17    1
    30    17    27    1
    31    17    18    2
    32    18    19    1
    33    19    20    1
    34    19    26    1
    35    20    25    1
    36    20    21    1
    37    20    41    1
    38    21    22    1
    39    21    42    1
    40    21    43    1
    41    22    23    1
    42    22    44    1
    43    22    45    1
    44    23    24    1
    45    23    46    1
    46    23    47    1
    47    24    25    1
    48    24    48    1
    49    24    49    1
    50    25    50    1
    51    25    51    1
    52    26    27    2
    53    26    52    1
    54    27    53    1
    55    28    29    1
    56    28    30   ar
    57    29    54    1
    58    29    55    1
    59    29    56    1
    60    30    57    1
@<TRIPOS>SUBSTRUCTURE
     1 ZINC000470948647        1 TEMP              0 ****  ****    0 ROOT


##########                                Name:    ZINC000623581528
##########                DOCK_Rotatable_Bonds:                   5
##########                         Heavy_Atoms:                  26
##########                    Molecular_Weight:             355.369
##########                DOCK_Rotatable_Bonds:                   5
##########                       Formal_Charge:        -4.47035e-07
##########                     HBond_Acceptors:                   7
##########                        HBond_Donors:                   2
##########                         Heavy_Atoms:                  26
##########                          Grid_Score:          -28.720768
##########                     Grid_vdw_energy:          -28.622738
##########                      Grid_es_energy:           -0.098030
##########           Internal_energy_repulsive:            4.754680

@<TRIPOS>MOLECULE
ZINC000623581528
 44 47 1 0 0
SMALL
USER_CHARGES


@<TRIPOS>ATOM
      1 C1        -10.2345   -0.7092   55.3960 C.3     1  ZINC000623581528    0.1000
      2 N2         -9.2241   -0.2276   54.4508 N.am    1  ZINC000623581528   -0.5500
      3 C3         -8.9756   -0.7300   53.2251 C.2     1  ZINC000623581528    0.6300
      4 O4         -9.5610   -1.6677   52.7187 O.2     1  ZINC000623581528   -0.4800
      5 O5         -7.9818   -0.0348   52.6500 O.3     1  ZINC000623581528   -0.2300
      6 C6         -7.5675    0.9363   53.5002 C.ar    1  ZINC000623581528    0.0400
      7 C7         -6.5920    1.9166   53.4122 C.ar    1  ZINC000623581528   -0.0800
      8 C8         -6.3927    2.7871   54.4664 C.ar    1  ZINC000623581528   -0.0900
      9 C9         -7.1627    2.6849   55.6115 C.ar    1  ZINC000623581528   -0.0900
     10 C10        -6.9375    3.6392   56.7560 C.3     1  ZINC000623581528    0.1800
     11 N11        -5.8547    3.1364   57.6052 N.am    1  ZINC000623581528   -0.7400
     12 C12        -4.6879    3.8070   57.6768 C.2     1  ZINC000623581528    0.7100
     13 O13        -4.5332    4.8284   57.0355 O.2     1  ZINC000623581528   -0.5800
     14 N14        -3.6924    3.3454   58.4593 N.am    1  ZINC000623581528   -0.7300
     15 C15        -2.4245    4.0753   58.5385 C.3     1  ZINC000623581528    0.2000
     16 H16        -2.5855    5.1345   58.3384 H       1  ZINC000623581528    0.1000
     17 C17        -1.4061    3.4899   57.5373 C.3     1  ZINC000623581528   -0.1300
     18 C18        -0.6558    2.4508   58.3972 C.3     1  ZINC000623581528   -0.0800
     19 C19        -0.7772    2.9523   59.8203 C.ar    1  ZINC000623581528   -0.1000
     20 C20        -0.0552    2.6178   60.9537 C.ar    1  ZINC000623581528   -0.0800
     21 C21        -0.3465    3.2137   62.1651 C.ar    1  ZINC000623581528   -0.1400
     22 C22        -1.3641    4.1487   62.2474 C.ar    1  ZINC000623581528    0.0900
     23 F23        -1.6512    4.7339   63.4308 F       1  ZINC000623581528   -0.1400
     24 C24        -2.0863    4.4832   61.1155 C.ar    1  ZINC000623581528   -0.1200
     25 C25        -1.7951    3.8881   59.9023 C.ar    1  ZINC000623581528   -0.0900
     26 C26        -8.1377    1.7106   55.7085 C.ar    1  ZINC000623581528   -0.0800
     27 C27        -8.3477    0.8382   54.6526 C.ar    1  ZINC000623581528    0.0700
     28 H28       -11.1742   -0.1849   55.2219 H       1  ZINC000623581528    0.0800
     29 H29       -10.3841   -1.7796   55.2539 H       1  ZINC000623581528    0.0900
     30 H30        -9.8972   -0.5217   56.4154 H       1  ZINC000623581528    0.0900
     31 H31        -5.9881    1.9997   52.5208 H       1  ZINC000623581528    0.1500
     32 H32        -5.6321    3.5505   54.3966 H       1  ZINC000623581528    0.1500
     33 H33        -6.6666    4.6194   56.3639 H       1  ZINC000623581528    0.0800
     34 H34        -7.8514    3.7231   57.3442 H       1  ZINC000623581528    0.0800
     35 H35        -5.9777    2.3210   58.1159 H       1  ZINC000623581528    0.4000
     36 H36        -3.8152    2.5299   58.9699 H       1  ZINC000623581528    0.4000
     37 H37        -1.9160    3.0072   56.7036 H       1  ZINC000623581528    0.0900
     38 H38        -0.7248    4.2626   57.1812 H       1  ZINC000623581528    0.0900
     39 H39        -1.1235    1.4710   58.3003 H       1  ZINC000623581528    0.0800
     40 H40         0.3923    2.4012   58.1017 H       1  ZINC000623581528    0.0800
     41 H41         0.7387    1.8886   60.8901 H       1  ZINC000623581528    0.1300
     42 H42         0.2186    2.9505   63.0469 H       1  ZINC000623581528    0.1400
     43 H43        -2.8802    5.2125   61.1794 H       1  ZINC000623581528    0.1400
     44 H44        -8.7377    1.6324   56.6031 H       1  ZINC000623581528    0.1400
@<TRIPOS>BOND
     1     1     2    1
     2     1    28    1
     3     1    29    1
     4     1    30    1
     5     2    27    1
     6     2     3   am
     7     3     4    2
     8     3     5    1
     9     5     6    1
    10     6    27   ar
    11     6     7   ar
    12     7     8   ar
    13     7    31    1
    14     8     9   ar
    15     8    32    1
    16     9    10    1
    17     9    26   ar
    18    10    11    1
    19    10    33    1
    20    10    34    1
    21    11    12   am
    22    11    35    1
    23    12    13    2
    24    12    14   am
    25    14    15    1
    26    14    36    1
    27    15    16    1
    28    15    25    1
    29    15    17    1
    30    17    18    1
    31    17    37    1
    32    17    38    1
    33    18    19    1
    34    18    39    1
    35    18    40    1
    36    19    25   ar
    37    19    20   ar
    38    20    21   ar
    39    20    41    1
    40    21    22   ar
    41    21    42    1
    42    22    23    1
    43    22    24   ar
    44    24    25   ar
    45    24    43    1
    46    26    27   ar
    47    26    44    1
@<TRIPOS>SUBSTRUCTURE
     1 ZINC000623581528        1 TEMP              0 ****  ****    0 ROOT


##########                                Name:    ZINC000460163972
##########                DOCK_Rotatable_Bonds:                   7
##########                         Heavy_Atoms:                  28
##########                    Molecular_Weight:             408.469
##########                DOCK_Rotatable_Bonds:                   7
##########                       Formal_Charge:          -0.0100001
##########                     HBond_Acceptors:                   8
##########                        HBond_Donors:                   2
##########                         Heavy_Atoms:                  28
##########                          Grid_Score:          -28.682793
##########                     Grid_vdw_energy:          -27.609457
##########                      Grid_es_energy:           -1.073336
##########           Internal_energy_repulsive:           48.122169

@<TRIPOS>MOLECULE
ZINC000460163972
 50 52 1 0 0
SMALL
USER_CHARGES


@<TRIPOS>ATOM
      1 C1         -7.3346    1.9374   54.1278 C.3     1  ZINC000460163972   -0.1400
      2 C2         -7.9893    1.5425   55.4264 C.ar    1  ZINC000460163972    0.0100
      3 C3         -7.5406    2.0829   56.6174 C.ar    1  ZINC000460163972   -0.1300
      4 C4         -8.1386    1.7230   57.8095 C.ar    1  ZINC000460163972   -0.0600
      5 C5         -9.1915    0.8179   57.8107 C.ar    1  ZINC000460163972    0.1100
      6 N6         -9.7997    0.4516   59.0165 N.am    1  ZINC000460163972   -0.6700
      7 C7         -9.2579   -0.5208   59.7764 C.2     1  ZINC000460163972    0.5200
      8 O8         -8.2432   -1.0783   59.4151 O.2     1  ZINC000460163972   -0.5100
      9 C9         -9.9129   -0.9153   61.0750 C.3     1  ZINC000460163972   -0.0700
     10 H10        -9.6015   -1.9238   61.3473 H       1  ZINC000460163972    0.1200
     11 C11        -9.4941    0.0622   62.1750 C.3     1  ZINC000460163972   -0.1500
     12 C12       -11.4107   -0.8784   60.9137 C.ar    1  ZINC000460163972   -0.0600
     13 C13       -12.0760    0.3331   60.9190 C.ar    1  ZINC000460163972   -0.0700
     14 C14       -13.4502    0.3695   60.7713 C.ar    1  ZINC000460163972   -0.1200
     15 C15       -14.1609   -0.8077   60.6173 C.ar    1  ZINC000460163972    0.0700
     16 F16       -15.5037   -0.7730   60.4723 F       1  ZINC000460163972   -0.1300
     17 C17       -13.4933   -2.0234   60.6114 C.ar    1  ZINC000460163972    0.0700
     18 F18       -14.1850   -3.1741   60.4612 F       1  ZINC000460163972   -0.1300
     19 C19       -12.1174   -2.0561   60.7547 C.ar    1  ZINC000460163972   -0.1200
     20 C20        -9.6401    0.2772   56.6126 C.ar    1  ZINC000460163972    0.0000
     21 C21       -10.7830   -0.7051   56.6094 C.3     1  ZINC000460163972   -0.1500
     22 C22        -9.0412    0.6447   55.4238 C.ar    1  ZINC000460163972   -0.6700
     23 S23        -9.6100   -0.0402   53.9033 S.o2    1  ZINC000460163972    2.7000
     24 O24        -8.6261   -0.9800   53.4935 O.2     1  ZINC000460163972   -0.9500
     25 O25       -10.9751   -0.3809   54.1023 O.2     1  ZINC000460163972   -0.9500
     26 N26        -9.5907    1.1767   52.7801 N.am    1  ZINC000460163972   -1.0900
     27 C27       -10.3981    2.3807   52.9908 C.3     1  ZINC000460163972    0.0800
     28 C28       -10.6602    3.2765   51.7783 C.3     1  ZINC000460163972   -0.1800
     29 C29       -11.7889    2.4190   52.3543 C.3     1  ZINC000460163972   -0.1900
     30 H30        -7.9019    2.7454   53.6658 H       1  ZINC000460163972    0.1000
     31 H31        -6.3159    2.2734   54.3218 H       1  ZINC000460163972    0.0800
     32 H32        -7.3124    1.0790   53.4564 H       1  ZINC000460163972    0.0700
     33 H33        -6.7216    2.7869   56.6157 H       1  ZINC000460163972    0.1400
     34 H34        -7.7872    2.1450   58.7395 H       1  ZINC000460163972    0.1600
     35 H35       -10.6112    0.8974   59.3055 H       1  ZINC000460163972    0.4100
     36 H36        -9.9679   -0.2232   63.1142 H       1  ZINC000460163972    0.0800
     37 H37        -8.4107    0.0355   62.2917 H       1  ZINC000460163972    0.0700
     38 H38        -9.8055    1.0707   61.9027 H       1  ZINC000460163972    0.0700
     39 H39       -11.5219    1.2522   61.0392 H       1  ZINC000460163972    0.1400
     40 H40       -13.9689    1.3167   60.7763 H       1  ZINC000460163972    0.1500
     41 H41       -11.5963   -3.0021   60.7500 H       1  ZINC000460163972    0.1500
     42 H42       -11.7125   -0.1805   56.3883 H       1  ZINC000460163972    0.1000
     43 H43       -10.6058   -1.4662   55.8495 H       1  ZINC000460163972    0.1000
     44 H44       -10.8573   -1.1793   57.5881 H       1  ZINC000460163972    0.0700
     45 H45        -9.0448    1.0920   51.9827 H       1  ZINC000460163972    0.4200
     46 H46       -10.2739    2.8668   53.9584 H       1  ZINC000460163972    0.1300
     47 H47       -10.7085    4.3521   51.9482 H       1  ZINC000460163972    0.1100
     48 H48       -10.2320    2.9698   50.8240 H       1  ZINC000460163972    0.1000
     49 H49       -12.1031    1.5481   51.7789 H       1  ZINC000460163972    0.1000
     50 H50       -12.5797    2.9304   52.9032 H       1  ZINC000460163972    0.1000
@<TRIPOS>BOND
     1     1     2    1
     2     1    30    1
     3     1    31    1
     4     1    32    1
     5     2    22   ar
     6     2     3   ar
     7     3     4   ar
     8     3    33    1
     9     4     5   ar
    10     4    34    1
    11     5     6    1
    12     5    20   ar
    13     6     7   am
    14     6    35    1
    15     7     8    2
    16     7     9    1
    17     9    10    1
    18     9    11    1
    19     9    12    1
    20    11    36    1
    21    11    37    1
    22    11    38    1
    23    12    19   ar
    24    12    13   ar
    25    13    14   ar
    26    13    39    1
    27    14    15   ar
    28    14    40    1
    29    15    16    1
    30    15    17   ar
    31    17    18    1
    32    17    19   ar
    33    19    41    1
    34    20    21    1
    35    20    22   ar
    36    21    42    1
    37    21    43    1
    38    21    44    1
    39    22    23    1
    40    23    24    2
    41    23    25    2
    42    23    26   am
    43    26    27    1
    44    26    45    1
    45    27    29    1
    46    27    28    1
    47    27    46    1
    48    28    29    1
    49    28    47    1
    50    28    48    1
    51    29    49    1
    52    29    50    1
@<TRIPOS>SUBSTRUCTURE
     1 ZINC000460163972        1 TEMP              0 ****  ****    0 ROOT


##########                                Name:    ZINC000957079511
##########                DOCK_Rotatable_Bonds:                   8
##########                         Heavy_Atoms:                  25
##########                    Molecular_Weight:             362.453
##########                DOCK_Rotatable_Bonds:                   8
##########                       Formal_Charge:        -4.32134e-07
##########                     HBond_Acceptors:                   8
##########                        HBond_Donors:                   2
##########                         Heavy_Atoms:                  25
##########                          Grid_Score:          -28.666519
##########                     Grid_vdw_energy:          -28.746962
##########                      Grid_es_energy:            0.080443
##########           Internal_energy_repulsive:           10.500405

@<TRIPOS>MOLECULE
ZINC000957079511
 47 49 1 0 0
SMALL
USER_CHARGES


@<TRIPOS>ATOM
      1 C1        -11.3909    1.4392   64.5796 C.3     1  ZINC000957079511   -0.0700
      2 C2        -10.0104    0.8833   64.3423 C.2     1  ZINC000957079511    0.0300
      3 C3         -9.3142    0.9579   63.1920 C.2     1  ZINC000957079511   -0.0200
      4 C4         -9.7654    1.6079   61.9094 C.3     1  ZINC000957079511   -0.0600
      5 C5         -9.3608    0.7469   60.7406 C.2     1  ZINC000957079511    0.5100
      6 O6         -8.1992    0.4308   60.5935 O.2     1  ZINC000957079511   -0.5200
      7 N7        -10.2900    0.3282   59.8585 N.am    1  ZINC000957079511   -0.7200
      8 C8         -9.8964   -0.5073   58.7213 C.3     1  ZINC000957079511    0.1400
      9 H9         -9.0282   -1.1177   58.9696 H       1  ZINC000957079511    0.1100
     10 C10        -9.6264    0.3571   57.4644 C.3     1  ZINC000957079511    0.0800
     11 N11        -9.8514   -0.5519   56.3258 N.am    1  ZINC000957079511   -0.6200
     12 C12        -9.3188   -0.4160   55.0952 C.2     1  ZINC000957079511    0.5400
     13 O13        -9.5725   -1.2289   54.2315 O.2     1  ZINC000957079511   -0.5100
     14 C14        -8.4079    0.7457   54.7924 C.3     1  ZINC000957079511    0.0500
     15 O15        -8.1439    0.7908   53.3887 O.3     1  ZINC000957079511   -0.2800
     16 C16        -7.3925    1.8319   52.9337 C.2     1  ZINC000957079511    0.1200
     17 C17        -6.8563    2.7434   53.7506 C.2     1  ZINC000957079511   -0.3300
     18 S18        -5.9598    3.9266   52.8075 S.3     1  ZINC000957079511    0.1300
     19 C19        -6.3735    3.0957   51.3136 C.2     1  ZINC000957079511   -0.1800
     20 C20        -7.1201    2.0244   51.5878 C.2     1  ZINC000957079511   -0.1400
     21 C21       -10.7522   -1.6315   56.7552 C.3     1  ZINC000957079511    0.1100
     22 C22       -11.0794   -1.3908   58.2445 C.3     1  ZINC000957079511   -0.1100
     23 H23       -12.0247   -0.8584   58.3506 H       1  ZINC000957079511    0.0900
     24 C24       -11.1169   -2.7143   59.0113 C.3     1  ZINC000957079511   -0.1400
     25 N25        -8.1177    0.3305   63.4117 N.pl3   1  ZINC000957079511   -0.5600
     26 C26        -8.1244   -0.1061   64.6897 C.2     1  ZINC000957079511    0.2000
     27 N27        -9.2575    0.2324   65.2415 N.2     1  ZINC000957079511   -0.4900
     28 H28       -11.3125    2.4654   64.9388 H       1  ZINC000957079511    0.0700
     29 H29       -11.9545    1.4229   63.6467 H       1  ZINC000957079511    0.0600
     30 H30       -11.9041    0.8316   65.3249 H       1  ZINC000957079511    0.0700
     31 H31       -10.8497    1.7194   61.9204 H       1  ZINC000957079511    0.1000
     32 H32        -9.3002    2.5891   61.8161 H       1  ZINC000957079511    0.1200
     33 H33       -11.2193    0.5800   59.9768 H       1  ZINC000957079511    0.4000
     34 H34       -10.3221    1.1953   57.4239 H       1  ZINC000957079511    0.0800
     35 H35        -8.5975    0.7167   57.4653 H       1  ZINC000957079511    0.0800
     36 H36        -8.8882    1.6740   55.1016 H       1  ZINC000957079511    0.0900
     37 H37        -7.4704    0.6233   55.3347 H       1  ZINC000957079511    0.0900
     38 H38        -6.9582    2.7525   54.8258 H       1  ZINC000957079511    0.1700
     39 H39        -6.0663    3.4035   50.3251 H       1  ZINC000957079511    0.1800
     40 H40        -7.4905    1.3620   50.8194 H       1  ZINC000957079511    0.1500
     41 H41       -11.6684   -1.6064   56.1653 H       1  ZINC000957079511    0.0800
     42 H42       -10.2583   -2.5958   56.6360 H       1  ZINC000957079511    0.0800
     43 H43       -10.1537   -3.2159   58.9173 H       1  ZINC000957079511    0.0600
     44 H44       -11.3236   -2.5188   60.0635 H       1  ZINC000957079511    0.0600
     45 H45       -11.8999   -3.3508   58.5993 H       1  ZINC000957079511    0.0700
     46 H46        -7.3992    0.2200   62.7695 H       1  ZINC000957079511    0.4200
     47 H47        -7.3231   -0.6429   65.1757 H       1  ZINC000957079511    0.2100
@<TRIPOS>BOND
     1     1     2    1
     2     1    28    1
     3     1    29    1
     4     1    30    1
     5     2    27    1
     6     2     3    2
     7     3     4    1
     8     3    25    1
     9     4     5    1
    10     4    31    1
    11     4    32    1
    12     5     6    2
    13     5     7   am
    14     7     8    1
    15     7    33    1
    16     8     9    1
    17     8    22    1
    18     8    10    1
    19    10    11    1
    20    10    34    1
    21    10    35    1
    22    11    12   am
    23    11    21    1
    24    12    13    2
    25    12    14    1
    26    14    15    1
    27    14    36    1
    28    14    37    1
    29    15    16    1
    30    16    20    1
    31    16    17    2
    32    17    18    1
    33    17    38    1
    34    18    19    1
    35    19    20    2
    36    19    39    1
    37    20    40    1
    38    21    22    1
    39    21    41    1
    40    21    42    1
    41    22    23    1
    42    22    24    1
    43    24    43    1
    44    24    44    1
    45    24    45    1
    46    25    26    1
    47    25    46    1
    48    26    27    2
    49    26    47    1
@<TRIPOS>SUBSTRUCTURE
     1 ZINC000957079511        1 TEMP              0 ****  ****    0 ROOT


##########                                Name:    ZINC001011676549
##########                DOCK_Rotatable_Bonds:                   6
##########                         Heavy_Atoms:                  24
##########                    Molecular_Weight:             330.387
##########                DOCK_Rotatable_Bonds:                   6
##########                       Formal_Charge:        -1.49012e-07
##########                     HBond_Acceptors:                   7
##########                        HBond_Donors:                   1
##########                         Heavy_Atoms:                  24
##########                          Grid_Score:          -28.664886
##########                     Grid_vdw_energy:          -29.708382
##########                      Grid_es_energy:            1.043496
##########           Internal_energy_repulsive:           13.594079

@<TRIPOS>MOLECULE
ZINC001011676549
 46 48 1 0 0
SMALL
USER_CHARGES


@<TRIPOS>ATOM
      1 C1         -9.2557    2.1088   58.5828 C.3     1  ZINC001011676549   -0.1700
      2 C2         -8.8449    0.6708   58.2595 C.3     1  ZINC001011676549    0.1300
      3 H3         -7.7581    0.5936   58.2304 H       1  ZINC001011676549    0.0900
      4 C4         -9.4108   -0.2892   59.3270 C.3     1  ZINC001011676549    0.1400
      5 H5         -8.7125   -1.1030   59.5229 H       1  ZINC001011676549    0.1100
      6 N6         -9.7206    0.4342   60.5628 N.am    1  ZINC001011676549   -0.7200
      7 C7        -10.1873   -0.2344   61.6360 C.2     1  ZINC001011676549    0.5200
      8 O8        -10.3522   -1.4345   61.5782 O.2     1  ZINC001011676549   -0.5300
      9 C9        -10.5043    0.5095   62.9077 C.3     1  ZINC001011676549   -0.0900
     10 C10        -9.3932    0.2980   63.9036 C.ar    1  ZINC001011676549   -0.1800
     11 C11        -9.6680    0.1639   65.2555 C.ar    1  ZINC001011676549    0.1600
     12 N12        -8.6665   -0.0207   66.1006 N.ar    1  ZINC001011676549   -0.5200
     13 C13        -7.4219   -0.0772   65.6707 C.ar    1  ZINC001011676549    0.3000
     14 N14        -7.1231    0.0462   64.3931 N.ar    1  ZINC001011676549   -0.5200
     15 C15        -8.0726    0.2272   63.4892 C.ar    1  ZINC001011676549    0.1600
     16 C16       -10.7056   -0.8253   58.6609 C.3     1  ZINC001011676549   -0.1400
     17 C17       -10.2795   -0.9066   57.1738 C.3     1  ZINC001011676549    0.1000
     18 N18        -9.4098    0.2690   56.9630 N.am    1  ZINC001011676549   -0.6100
     19 C19        -9.1774    0.8722   55.7804 C.2     1  ZINC001011676549    0.5800
     20 O20        -8.4398    1.8376   55.7247 O.2     1  ZINC001011676549   -0.5300
     21 C21        -9.8160    0.3629   54.5569 C.2     1  ZINC001011676549   -0.1400
     22 C22        -9.2234   -0.6073   53.8846 C.2     1  ZINC001011676549   -0.1500
     23 C23        -9.7971   -1.1834   52.6209 C.3     1  ZINC001011676549    0.0900
     24 O24       -11.1694   -0.8075   52.4888 O.3     1  ZINC001011676549   -0.3800
     25 C25       -11.3849    0.5995   52.6511 C.3     1  ZINC001011676549    0.0600
     26 C26       -11.1244    0.9608   54.1177 C.3     1  ZINC001011676549   -0.1100
     27 H27       -10.3432    2.1813   58.5982 H       1  ZINC001011676549    0.0600
     28 H28        -8.8592    2.3893   59.5586 H       1  ZINC001011676549    0.0700
     29 H29        -8.8575    2.7802   57.8222 H       1  ZINC001011676549    0.0800
     30 H30        -9.5898    1.3941   60.6085 H       1  ZINC001011676549    0.4100
     31 H31       -10.6008    1.5736   62.6917 H       1  ZINC001011676549    0.1100
     32 H32       -11.4404    0.1366   63.3231 H       1  ZINC001011676549    0.1100
     33 H33       -10.6856    0.2096   65.6143 H       1  ZINC001011676549    0.1700
     34 H34        -6.6257   -0.2285   66.3846 H       1  ZINC001011676549    0.2000
     35 H35        -7.8209    0.3272   62.4436 H       1  ZINC001011676549    0.1700
     36 H36       -10.9645   -1.8110   59.0475 H       1  ZINC001011676549    0.0900
     37 H37       -11.5312   -0.1262   58.7931 H       1  ZINC001011676549    0.0800
     38 H38        -9.7240   -1.8258   56.9879 H       1  ZINC001011676549    0.0800
     39 H39       -11.1539   -0.8531   56.5252 H       1  ZINC001011676549    0.0800
     40 H40        -8.2898   -1.0019   54.2576 H       1  ZINC001011676549    0.1200
     41 H41        -9.2357   -0.8083   51.7652 H       1  ZINC001011676549    0.0700
     42 H42        -9.7214   -2.2703   52.6521 H       1  ZINC001011676549    0.1100
     43 H43       -10.7007    1.1517   52.0069 H       1  ZINC001011676549    0.0600
     44 H44       -12.4150    0.8445   52.3919 H       1  ZINC001011676549    0.1000
     45 H45       -11.9337    0.5729   54.7364 H       1  ZINC001011676549    0.0900
     46 H46       -11.0762    2.0448   54.2215 H       1  ZINC001011676549    0.0900
@<TRIPOS>BOND
     1     1     2    1
     2     1    27    1
     3     1    28    1
     4     1    29    1
     5     2     3    1
     6     2    18    1
     7     2     4    1
     8     4     5    1
     9     4     6    1
    10     4    16    1
    11     6     7   am
    12     6    30    1
    13     7     8    2
    14     7     9    1
    15     9    10    1
    16     9    31    1
    17     9    32    1
    18    10    15   ar
    19    10    11   ar
    20    11    12   ar
    21    11    33    1
    22    12    13   ar
    23    13    14   ar
    24    13    34    1
    25    14    15   ar
    26    15    35    1
    27    16    17    1
    28    16    36    1
    29    16    37    1
    30    17    18    1
    31    17    38    1
    32    17    39    1
    33    18    19   am
    34    19    20    2
    35    19    21    1
    36    21    26    1
    37    21    22    2
    38    22    23    1
    39    22    40    1
    40    23    24    1
    41    23    41    1
    42    23    42    1
    43    24    25    1
    44    25    26    1
    45    25    43    1
    46    25    44    1
    47    26    45    1
    48    26    46    1
@<TRIPOS>SUBSTRUCTURE
     1 ZINC001011676549        1 TEMP              0 ****  ****    0 ROOT


##########                                Name:    ZINC000650955167
##########                DOCK_Rotatable_Bonds:                   9
##########                         Heavy_Atoms:                  26
##########                    Molecular_Weight:             361.484
##########                DOCK_Rotatable_Bonds:                   9
##########                       Formal_Charge:        -7.07805e-07
##########                     HBond_Acceptors:                   6
##########                        HBond_Donors:                   2
##########                         Heavy_Atoms:                  26
##########                          Grid_Score:          -28.658075
##########                     Grid_vdw_energy:          -26.565859
##########                      Grid_es_energy:           -2.092216
##########           Internal_energy_repulsive:           25.880054

@<TRIPOS>MOLECULE
ZINC000650955167
 57 59 1 0 0
SMALL
USER_CHARGES


@<TRIPOS>ATOM
      1 C1         -8.3083    2.6590   56.5051 C.3     1  ZINC000650955167    0.0200
      2 O2         -8.3745    1.2330   56.4382 O.3     1  ZINC000650955167   -0.3200
      3 C3         -8.6596    0.6847   55.2278 C.ar    1  ZINC000650955167    0.1300
      4 C4         -7.9383    1.0650   54.1057 C.ar    1  ZINC000650955167   -0.2000
      5 C5         -8.2299    0.5056   52.8763 C.ar    1  ZINC000650955167   -0.0800
      6 C6         -9.2397   -0.4318   52.7641 C.ar    1  ZINC000650955167   -0.1500
      7 C7         -9.9606   -0.8121   53.8812 C.ar    1  ZINC000650955167   -0.0800
      8 C8         -9.6689   -0.2605   55.1136 C.ar    1  ZINC000650955167   -0.1100
      9 C9        -10.4545   -0.6758   56.3307 C.3     1  ZINC000650955167   -0.0800
     10 C10       -11.2906    0.5060   56.8258 C.3     1  ZINC000650955167    0.1800
     11 H11       -11.0440    1.3944   56.2444 H       1  ZINC000650955167    0.0900
     12 N12       -10.9992    0.7517   58.2404 N.am    1  ZINC000650955167   -0.7300
     13 C13       -11.0742   -0.2588   59.1292 C.2     1  ZINC000650955167    0.7400
     14 O14       -11.3822   -1.3745   58.7566 O.2     1  ZINC000650955167   -0.5800
     15 N15       -10.8078   -0.0325   60.4308 N.am    1  ZINC000650955167   -0.6700
     16 C16       -10.4242    1.1294   61.2468 C.3     1  ZINC000650955167    0.1100
     17 C17        -9.7447    0.1544   62.2182 C.3     1  ZINC000650955167    0.0300
     18 N18        -9.9354    0.4863   63.6365 N.3     1  ZINC000650955167   -0.5100
     19 C19        -9.4374    1.8462   63.9340 C.3     1  ZINC000650955167    0.0400
     20 C20        -8.8900    1.7594   65.3806 C.3     1  ZINC000650955167   -0.1600
     21 C21        -8.2643    0.3399   65.3942 C.3     1  ZINC000650955167    0.0800
     22 H22        -7.2629    0.3560   64.9643 H       1  ZINC000650955167    0.0600
     23 O23        -8.2336   -0.1861   66.7226 O.3     1  ZINC000650955167   -0.5600
     24 C24        -9.2274   -0.4731   64.5037 C.3     1  ZINC000650955167    0.0500
     25 C25       -10.7791   -0.8375   61.6613 C.3     1  ZINC000650955167    0.1400
     26 C26       -12.7771    0.1841   56.6597 C.3     1  ZINC000650955167   -0.1100
     27 C27       -13.6022    1.1068   57.5591 C.3     1  ZINC000650955167   -0.1400
     28 C28       -13.1849    0.3962   55.2003 C.3     1  ZINC000650955167   -0.1500
     29 H29        -8.0737    2.9644   57.5248 H       1  ZINC000650955167    0.1000
     30 H30        -7.5315    3.0187   55.8303 H       1  ZINC000650955167    0.0600
     31 H31        -9.2691    3.0815   56.2112 H       1  ZINC000650955167    0.0600
     32 H32        -7.1498    1.7977   54.1927 H       1  ZINC000650955167    0.1300
     33 H33        -7.6686    0.8013   52.0023 H       1  ZINC000650955167    0.1200
     34 H34        -9.4663   -0.8676   51.8023 H       1  ZINC000650955167    0.1200
     35 H35       -10.7492   -1.5444   53.7910 H       1  ZINC000650955167    0.1300
     36 H36       -11.1139   -1.5044   56.0723 H       1  ZINC000650955167    0.0900
     37 H37        -9.7677   -0.9896   57.1168 H       1  ZINC000650955167    0.0800
     38 H38       -10.7524    1.6415   58.5373 H       1  ZINC000650955167    0.4000
     39 H39        -9.7262    1.8001   60.7459 H       1  ZINC000650955167    0.0700
     40 H40       -11.2748    1.6538   61.6822 H       1  ZINC000650955167    0.0900
     41 H41        -8.7105   -0.0799   61.9659 H       1  ZINC000650955167    0.0900
     42 H42        -8.6400    2.1180   63.2423 H       1  ZINC000650955167    0.0500
     43 H43       -10.2514    2.5690   63.8790 H       1  ZINC000650955167    0.0900
     44 H44        -8.1317    2.5221   65.5576 H       1  ZINC000650955167    0.0800
     45 H45        -9.6974    1.8372   66.1087 H       1  ZINC000650955167    0.0900
     46 H46        -7.7191    0.3463   67.3445 H       1  ZINC000650955167    0.3800
     47 H47        -9.9439   -1.0097   65.1256 H       1  ZINC000650955167    0.0900
     48 H48        -8.6623   -1.1776   63.8932 H       1  ZINC000650955167    0.0700
     49 H49       -11.7219   -0.8342   62.2082 H       1  ZINC000650955167    0.0900
     50 H50       -10.3814   -1.8413   61.5119 H       1  ZINC000650955167    0.0800
     51 H51       -12.9578   -0.8535   56.9403 H       1  ZINC000650955167    0.0700
     52 H52       -13.4216    2.1445   57.2784 H       1  ZINC000650955167    0.0600
     53 H53       -14.6613    0.8776   57.4406 H       1  ZINC000650955167    0.0400
     54 H54       -13.3117    0.9558   58.5987 H       1  ZINC000650955167    0.0500
     55 H55       -12.5970   -0.2610   54.5596 H       1  ZINC000650955167    0.0600
     56 H56       -14.2438    0.1670   55.0820 H       1  ZINC000650955167    0.0600
     57 H57       -13.0041    1.4340   54.9198 H       1  ZINC000650955167    0.0600
@<TRIPOS>BOND
     1     1     2    1
     2     1    29    1
     3     1    30    1
     4     1    31    1
     5     2     3    1
     6     3     8   ar
     7     3     4   ar
     8     4     5   ar
     9     4    32    1
    10     5     6   ar
    11     5    33    1
    12     6     7   ar
    13     6    34    1
    14     7     8   ar
    15     7    35    1
    16     8     9    1
    17     9    10    1
    18     9    36    1
    19     9    37    1
    20    10    11    1
    21    10    12    1
    22    10    26    1
    23    12    13   am
    24    12    38    1
    25    13    14    2
    26    13    15   am
    27    15    25    1
    28    15    16    1
    29    16    17    1
    30    16    39    1
    31    16    40    1
    32    17    18    1
    33    17    25    1
    34    17    41    1
    35    18    24    1
    36    18    19    1
    37    19    20    1
    38    19    42    1
    39    19    43    1
    40    20    21    1
    41    20    44    1
    42    20    45    1
    43    21    22    1
    44    21    23    1
    45    21    24    1
    46    23    46    1
    47    24    47    1
    48    24    48    1
    49    25    49    1
    50    25    50    1
    51    26    27    1
    52    26    28    1
    53    26    51    1
    54    27    52    1
    55    27    53    1
    56    27    54    1
    57    28    55    1
    58    28    56    1
    59    28    57    1
@<TRIPOS>SUBSTRUCTURE
     1 ZINC000650955167        1 TEMP              0 ****  ****    0 ROOT


##########                                Name:    ZINC000194290865
##########                DOCK_Rotatable_Bonds:                   7
##########                         Heavy_Atoms:                  28
##########                    Molecular_Weight:             387.479
##########                DOCK_Rotatable_Bonds:                   7
##########                       Formal_Charge:          -0.0400003
##########                     HBond_Acceptors:                   7
##########                        HBond_Donors:                   0
##########                         Heavy_Atoms:                  28
##########                          Grid_Score:          -28.625612
##########                     Grid_vdw_energy:          -27.622974
##########                      Grid_es_energy:           -1.002637
##########           Internal_energy_repulsive:           27.836132

@<TRIPOS>MOLECULE
ZINC000194290865
 57 59 1 0 0
SMALL
USER_CHARGES


@<TRIPOS>ATOM
      1 C1        -12.6250    3.4901   51.5994 C.3     1  ZINC000194290865   -0.1500
      2 C2        -12.8221    2.0990   52.2052 C.3     1  ZINC000194290865    0.0600
      3 O3        -11.5269    1.5008   52.4753 O.3     1  ZINC000194290865   -0.3600
      4 C4        -11.5231    0.2512   52.9653 C.2     1  ZINC000194290865    0.4700
      5 O5        -12.3407   -0.5511   52.5806 O.2     1  ZINC000194290865   -0.4900
      6 C6        -10.4992   -0.1514   53.9951 C.3     1  ZINC000194290865   -0.0600
      7 C7         -9.1269   -0.3221   53.3405 C.3     1  ZINC000194290865   -0.0700
      8 C8         -9.2461   -1.2706   52.1459 C.3     1  ZINC000194290865   -0.1700
      9 C9         -8.6171    1.0388   52.8623 C.3     1  ZINC000194290865   -0.1600
     10 C10       -10.4306    0.9023   55.1247 C.3     1  ZINC000194290865   -0.1200
     11 C11       -11.3407    0.2922   56.2202 C.3     1  ZINC000194290865    0.0900
     12 N12       -11.0551   -1.1583   56.1302 N.am    1  ZINC000194290865   -0.6100
     13 C13       -10.9383   -2.0277   57.1534 C.2     1  ZINC000194290865    0.5800
     14 O14       -10.7002   -3.1987   56.9317 O.2     1  ZINC000194290865   -0.5000
     15 C15       -11.1000   -1.5563   58.5471 C.ar    1  ZINC000194290865    0.0100
     16 C16       -12.3714   -1.4861   59.1483 C.ar    1  ZINC000194290865   -0.2200
     17 C17       -12.4807   -1.0326   60.4743 C.ar    1  ZINC000194290865    0.3000
     18 N18       -11.3956   -0.6769   61.1448 N.ar    1  ZINC000194290865   -0.4700
     19 C19       -10.1949   -0.7319   60.6091 C.ar    1  ZINC000194290865    0.2100
     20 C20        -9.0038   -0.3118   61.4312 C.3     1  ZINC000194290865   -0.1100
     21 C21        -9.9975   -1.1724   59.3103 C.ar    1  ZINC000194290865   -0.1800
     22 O22       -13.7906   -1.0657   60.7921 O.3     1  ZINC000194290865   -0.0800
     23 N23       -14.5312   -1.5365   59.6844 N.2     1  ZINC000194290865   -0.2600
     24 C24       -13.7280   -1.7942   58.6976 C.2     1  ZINC000194290865    0.1600
     25 C25       -14.1210   -2.3142   57.3389 C.3     1  ZINC000194290865   -0.0400
     26 C26       -14.3436   -3.8259   57.4161 C.3     1  ZINC000194290865   -0.1500
     27 C27       -15.4127   -1.6309   56.8853 C.3     1  ZINC000194290865   -0.1400
     28 C28       -10.9258   -1.4569   54.6917 C.3     1  ZINC000194290865    0.1200
     29 H29       -12.0743    4.1171   52.3006 H       1  ZINC000194290865    0.0700
     30 H30       -12.0630    3.4049   50.6693 H       1  ZINC000194290865    0.0700
     31 H31       -13.5973    3.9391   51.3966 H       1  ZINC000194290865    0.0800
     32 H32       -13.3841    2.1842   53.1353 H       1  ZINC000194290865    0.0700
     33 H33       -13.3727    1.4721   51.5040 H       1  ZINC000194290865    0.0700
     34 H34        -8.4275   -0.7376   54.0660 H       1  ZINC000194290865    0.0900
     35 H35        -9.6092   -2.2402   52.4866 H       1  ZINC000194290865    0.0500
     36 H36        -9.9456   -0.8550   51.4205 H       1  ZINC000194290865    0.0800
     37 H37        -8.2684   -1.3922   51.6795 H       1  ZINC000194290865    0.0600
     38 H38        -8.5322    1.7146   53.7133 H       1  ZINC000194290865    0.0500
     39 H39        -7.6394    0.9173   52.3959 H       1  ZINC000194290865    0.0600
     40 H40        -9.3166    1.4544   52.1369 H       1  ZINC000194290865    0.0800
     41 H41        -9.4090    1.0121   55.4886 H       1  ZINC000194290865    0.0900
     42 H42       -10.8251    1.8595   54.7840 H       1  ZINC000194290865    0.0900
     43 H43       -11.0702    0.6773   57.2034 H       1  ZINC000194290865    0.0900
     44 H44       -12.3902    0.4918   56.0035 H       1  ZINC000194290865    0.0900
     45 H45        -8.6100   -1.1750   61.9677 H       1  ZINC000194290865    0.0900
     46 H46        -8.2327    0.0907   60.7744 H       1  ZINC000194290865    0.0900
     47 H47        -9.3074    0.4529   62.1463 H       1  ZINC000194290865    0.0900
     48 H48        -9.0029   -1.2096   58.8911 H       1  ZINC000194290865    0.1600
     49 H49       -13.3264   -2.1000   56.6241 H       1  ZINC000194290865    0.1100
     50 H50       -15.1383   -4.0401   58.1308 H       1  ZINC000194290865    0.0700
     51 H51       -14.6279   -4.2020   56.4333 H       1  ZINC000194290865    0.0700
     52 H52       -13.4235   -4.3126   57.7392 H       1  ZINC000194290865    0.0600
     53 H53       -15.2540   -0.5539   56.8303 H       1  ZINC000194290865    0.0600
     54 H54       -15.6968   -2.0070   55.9025 H       1  ZINC000194290865    0.0700
     55 H55       -16.2072   -1.8450   57.6000 H       1  ZINC000194290865    0.0600
     56 H56       -11.8835   -1.7936   54.2949 H       1  ZINC000194290865    0.0800
     57 H57       -10.1671   -2.2245   54.5386 H       1  ZINC000194290865    0.1000
@<TRIPOS>BOND
     1     1     2    1
     2     1    29    1
     3     1    30    1
     4     1    31    1
     5     2     3    1
     6     2    32    1
     7     2    33    1
     8     3     4    1
     9     4     5    2
    10     4     6    1
    11     6    28    1
    12     6     7    1
    13     6    10    1
    14     7     8    1
    15     7     9    1
    16     7    34    1
    17     8    35    1
    18     8    36    1
    19     8    37    1
    20     9    38    1
    21     9    39    1
    22     9    40    1
    23    10    11    1
    24    10    41    1
    25    10    42    1
    26    11    12    1
    27    11    43    1
    28    11    44    1
    29    12    13   am
    30    12    28    1
    31    13    14    2
    32    13    15    1
    33    15    21   ar
    34    15    16   ar
    35    16    24    1
    36    16    17   ar
    37    17    18   ar
    38    17    22    1
    39    18    19   ar
    40    19    20    1
    41    19    21   ar
    42    20    45    1
    43    20    46    1
    44    20    47    1
    45    21    48    1
    46    22    23    1
    47    23    24    2
    48    24    25    1
    49    25    26    1
    50    25    27    1
    51    25    49    1
    52    26    50    1
    53    26    51    1
    54    26    52    1
    55    27    53    1
    56    27    54    1
    57    27    55    1
    58    28    56    1
    59    28    57    1
@<TRIPOS>SUBSTRUCTURE
     1 ZINC000194290865        1 TEMP              0 ****  ****    0 ROOT


##########                                Name:    ZINC000119180466
##########                DOCK_Rotatable_Bonds:                  10
##########                         Heavy_Atoms:                  23
##########                    Molecular_Weight:             350.405
##########                DOCK_Rotatable_Bonds:                  10
##########                       Formal_Charge:           0.0299997
##########                     HBond_Acceptors:                   8
##########                        HBond_Donors:                   3
##########                         Heavy_Atoms:                  23
##########                          Grid_Score:          -28.583218
##########                     Grid_vdw_energy:          -27.397863
##########                      Grid_es_energy:           -1.185354
##########           Internal_energy_repulsive:           12.982985

@<TRIPOS>MOLECULE
ZINC000119180466
 44 44 1 0 0
SMALL
USER_CHARGES


@<TRIPOS>ATOM
      1 C1         -5.1432    3.7012   58.2814 C.3     1  ZINC000119180466   -0.1300
      2 S2         -6.8737    3.1574   58.2965 S.3     1  ZINC000119180466   -0.2200
      3 C3         -7.1720    2.6973   56.5674 C.3     1  ZINC000119180466   -0.0700
      4 H4         -6.2741    2.2384   56.1535 H       1  ZINC000119180466    0.1100
      5 C5         -7.5237    3.9484   55.7601 C.3     1  ZINC000119180466    0.0800
      6 O6         -6.9212    3.8659   54.4669 O.3     1  ZINC000119180466   -0.5600
      7 C7         -8.3320    1.7022   56.4973 C.3     1  ZINC000119180466    0.1900
      8 H8         -9.2775    2.2423   56.5483 H       1  ZINC000119180466    0.1000
      9 C9         -8.2588    0.9254   55.1812 C.3     1  ZINC000119180466   -0.1700
     10 N10        -8.2423    0.7676   57.6217 N.am    1  ZINC000119180466   -0.7200
     11 C11        -9.2703    0.6520   58.4857 C.2     1  ZINC000119180466    0.7100
     12 O12       -10.2728    1.3223   58.3309 O.2     1  ZINC000119180466   -0.6000
     13 N13        -9.1870   -0.2068   59.5211 N.am    1  ZINC000119180466   -0.7400
     14 C14       -10.3052   -0.3338   60.4592 C.3     1  ZINC000119180466    0.2000
     15 H15       -11.0391    0.4464   60.2574 H       1  ZINC000119180466    0.1000
     16 C16       -10.9599   -1.7062   60.2894 C.3     1  ZINC000119180466   -0.1600
     17 C17        -9.7956   -0.1913   61.8702 C.ar    1  ZINC000119180466   -0.0600
     18 C18       -10.6469    0.2338   62.8730 C.ar    1  ZINC000119180466   -0.1100
     19 C19       -10.1794    0.3645   64.1673 C.ar    1  ZINC000119180466   -0.0600
     20 C20        -8.8608    0.0696   64.4589 C.ar    1  ZINC000119180466   -0.1800
     21 C21        -8.3510    0.2126   65.8698 C.3     1  ZINC000119180466    0.5100
     22 F22        -6.9701   -0.0111   65.8916 F       1  ZINC000119180466   -0.1800
     23 F23        -8.6215    1.5040   66.3349 F       1  ZINC000119180466   -0.1800
     24 F24        -8.9878   -0.7225   66.6928 F       1  ZINC000119180466   -0.1800
     25 C25        -8.0098   -0.3567   63.4565 C.ar    1  ZINC000119180466   -0.0600
     26 C26        -8.4782   -0.4911   62.1629 C.ar    1  ZINC000119180466   -0.1100
     27 H27        -5.0331    4.5438   57.5987 H       1  ZINC000119180466    0.0800
     28 H28        -4.8495    4.0066   59.2857 H       1  ZINC000119180466    0.1000
     29 H29        -4.5071    2.8801   57.9507 H       1  ZINC000119180466    0.0800
     30 H30        -8.6062    4.0190   55.6527 H       1  ZINC000119180466    0.0500
     31 H31        -7.1517    4.8320   56.2786 H       1  ZINC000119180466    0.0600
     32 H32        -5.9544    3.8776   54.4821 H       1  ZINC000119180466    0.3800
     33 H33        -7.3133    0.3854   55.1302 H       1  ZINC000119180466    0.0700
     34 H34        -9.0853    0.2165   55.1313 H       1  ZINC000119180466    0.0700
     35 H35        -8.3256    1.6208   54.3446 H       1  ZINC000119180466    0.0700
     36 H36        -7.4430    0.2318   57.7446 H       1  ZINC000119180466    0.4100
     37 H37        -8.3868   -0.7407   59.6452 H       1  ZINC000119180466    0.4000
     38 H38       -11.7918   -1.8007   60.9873 H       1  ZINC000119180466    0.0700
     39 H39       -11.3284   -1.8091   59.2687 H       1  ZINC000119180466    0.0700
     40 H40       -10.2260   -2.4863   60.4912 H       1  ZINC000119180466    0.0600
     41 H41       -11.6771    0.4641   62.6450 H       1  ZINC000119180466    0.1300
     42 H42       -10.8444    0.6973   64.9505 H       1  ZINC000119180466    0.1400
     43 H43        -6.9796   -0.5874   63.6844 H       1  ZINC000119180466    0.1400
     44 H44        -7.8134   -0.8242   61.3796 H       1  ZINC000119180466    0.1400
@<TRIPOS>BOND
     1     1     2    1
     2     1    27    1
     3     1    28    1
     4     1    29    1
     5     2     3    1
     6     3     4    1
     7     3     5    1
     8     3     7    1
     9     5     6    1
    10     5    30    1
    11     5    31    1
    12     6    32    1
    13     7     8    1
    14     7     9    1
    15     7    10    1
    16     9    33    1
    17     9    34    1
    18     9    35    1
    19    10    11   am
    20    10    36    1
    21    11    12    2
    22    11    13   am
    23    13    14    1
    24    13    37    1
    25    14    15    1
    26    14    16    1
    27    14    17    1
    28    16    38    1
    29    16    39    1
    30    16    40    1
    31    17    26   ar
    32    17    18   ar
    33    18    19   ar
    34    18    41    1
    35    19    20   ar
    36    19    42    1
    37    20    21    1
    38    20    25   ar
    39    21    22    1
    40    21    23    1
    41    21    24    1
    42    25    26   ar
    43    25    43    1
    44    26    44    1
@<TRIPOS>SUBSTRUCTURE
     1 ZINC000119180466        1 TEMP              0 ****  ****    0 ROOT


##########                                Name:    ZINC001058772245
##########                DOCK_Rotatable_Bonds:                  11
##########                         Heavy_Atoms:                  22
##########                    Molecular_Weight:             335.375
##########                DOCK_Rotatable_Bonds:                  11
##########                       Formal_Charge:          0.00999964
##########                     HBond_Acceptors:                   9
##########                        HBond_Donors:                   2
##########                         Heavy_Atoms:                  22
##########                          Grid_Score:          -28.569681
##########                     Grid_vdw_energy:          -28.513206
##########                      Grid_es_energy:           -0.056474
##########           Internal_energy_repulsive:           68.523895

@<TRIPOS>MOLECULE
ZINC001058772245
 41 41 1 0 0
SMALL
USER_CHARGES


@<TRIPOS>ATOM
      1 C1        -11.5493    0.5128   56.7688 C.3     1  ZINC001058772245   -0.1700
      2 C2        -10.1744   -0.1078   56.5128 C.3     1  ZINC001058772245   -0.1400
      3 C3         -9.4527    0.6844   55.4208 C.3     1  ZINC001058772245   -0.1500
      4 C4         -9.3619   -0.0696   57.7813 C.2     1  ZINC001058772245    0.5300
      5 O5         -8.3887    0.6502   57.8567 O.2     1  ZINC001058772245   -0.5200
      6 N6         -9.7168   -0.8352   58.8323 N.am    1  ZINC001058772245   -0.5900
      7 C7        -10.8925   -1.7045   58.7413 C.3     1  ZINC001058772245    0.0800
      8 C8        -11.8040   -1.4571   59.9450 C.3     1  ZINC001058772245    0.0400
      9 O9        -12.0536   -2.6939   60.6158 O.3     1  ZINC001058772245   -0.5700
     10 C10        -8.9269   -0.7981   60.0655 C.3     1  ZINC001058772245    0.1100
     11 C11        -9.0304    0.5922   60.6958 C.3     1  ZINC001058772245    0.1000
     12 N12        -8.5628    0.5356   62.0830 N.am    1  ZINC001058772245   -0.7100
     13 C13        -9.4523    0.5539   63.0953 C.2     1  ZINC001058772245    0.6000
     14 O14       -10.6435    0.6160   62.8572 O.2     1  ZINC001058772245   -0.5300
     15 C15        -8.9821    0.4988   64.4898 C.2     1  ZINC001058772245    0.0000
     16 C16        -9.7685    0.8004   65.5476 C.2     1  ZINC001058772245   -0.2200
     17 S17        -8.8583    0.6145   66.9825 S.3     1  ZINC001058772245    0.2300
     18 C18        -7.4812    0.1451   66.0883 C.2     1  ZINC001058772245    0.0000
     19 N19        -7.7407    0.1407   64.8282 N.2     1  ZINC001058772245   -0.4400
     20 C20       -10.3463   -1.5593   56.0607 C.3     1  ZINC001058772245    0.2900
     21 F21       -11.6956   -1.8050   55.7844 F       1  ZINC001058772245   -0.1900
     22 F22        -9.5861   -1.7816   54.9073 F       1  ZINC001058772245   -0.2000
     23 H23       -12.2295    0.2336   55.9642 H       1  ZINC001058772245    0.0800
     24 H24       -11.9411    0.1487   57.7186 H       1  ZINC001058772245    0.0700
     25 H25       -11.4568    1.5983   56.8062 H       1  ZINC001058772245    0.0900
     26 H26        -9.0964    1.6288   55.8323 H       1  ZINC001058772245    0.0800
     27 H27        -8.6056    0.1061   55.0521 H       1  ZINC001058772245    0.0700
     28 H28       -10.1421    0.8829   54.6001 H       1  ZINC001058772245    0.0900
     29 H29       -11.4363   -1.4851   57.8224 H       1  ZINC001058772245    0.0900
     30 H30       -10.5739   -2.7469   58.7349 H       1  ZINC001058772245    0.1200
     31 H31       -11.3191   -0.7629   60.6313 H       1  ZINC001058772245    0.0600
     32 H32       -12.7480   -1.0315   59.6044 H       1  ZINC001058772245    0.0700
     33 H33       -12.6078   -2.6091   61.4037 H       1  ZINC001058772245    0.3800
     34 H34        -9.3083   -1.5429   60.7639 H       1  ZINC001058772245    0.1000
     35 H35        -7.8839   -1.0160   59.8356 H       1  ZINC001058772245    0.0900
     36 H36        -8.4140    1.2932   60.1330 H       1  ZINC001058772245    0.0700
     37 H37       -10.0686    0.9239   60.6757 H       1  ZINC001058772245    0.0700
     38 H38        -7.6129    0.4849   62.2730 H       1  ZINC001058772245    0.4100
     39 H39       -10.8023    1.1083   65.4945 H       1  ZINC001058772245    0.1900
     40 H40        -6.5265   -0.1152   66.5206 H       1  ZINC001058772245    0.2100
     41 H41       -10.0097   -2.2287   56.8522 H       1  ZINC001058772245    0.1200
@<TRIPOS>BOND
     1     1     2    1
     2     1    23    1
     3     1    24    1
     4     1    25    1
     5     2     3    1
     6     2     4    1
     7     2    20    1
     8     3    26    1
     9     3    27    1
    10     3    28    1
    11     4     5    2
    12     4     6   am
    13     6     7    1
    14     6    10    1
    15     7     8    1
    16     7    29    1
    17     7    30    1
    18     8     9    1
    19     8    31    1
    20     8    32    1
    21     9    33    1
    22    10    11    1
    23    10    34    1
    24    10    35    1
    25    11    12    1
    26    11    36    1
    27    11    37    1
    28    12    13   am
    29    12    38    1
    30    13    14    2
    31    13    15    1
    32    15    19    1
    33    15    16    2
    34    16    17    1
    35    16    39    1
    36    17    18    1
    37    18    19    2
    38    18    40    1
    39    20    21    1
    40    20    22    1
    41    20    41    1
@<TRIPOS>SUBSTRUCTURE
     1 ZINC001058772245        1 TEMP              0 ****  ****    0 ROOT


##########                                Name:    ZINC000342525234
##########                DOCK_Rotatable_Bonds:                   6
##########                         Heavy_Atoms:                  25
##########                    Molecular_Weight:             333.349
##########                DOCK_Rotatable_Bonds:                   6
##########                       Formal_Charge:           0.0500003
##########                     HBond_Acceptors:                   7
##########                        HBond_Donors:                   2
##########                         Heavy_Atoms:                  25
##########                          Grid_Score:          -28.551788
##########                     Grid_vdw_energy:          -25.884413
##########                      Grid_es_energy:           -2.667376
##########           Internal_energy_repulsive:            4.528963

@<TRIPOS>MOLECULE
ZINC000342525234
 40 43 1 0 0
SMALL
USER_CHARGES


@<TRIPOS>ATOM
      1 O1         -9.2821    1.4030   51.8932 O.2     1  <0>        -0.5100
      2 C2         -8.2451    1.4508   52.5244 C.2     1  <0>         0.6000
      3 N3         -8.0354    0.5924   53.5420 N.am    1  <0>        -0.7100
      4 C4         -9.0605   -0.3944   53.8910 C.3     1  <0>         0.1200
      5 C5        -10.0875    0.2462   54.8269 C.3     1  <0>        -0.0900
      6 C6         -9.8292   -0.2062   56.2410 C.ar    1  <0>        -0.0400
      7 C7         -9.0204    0.5393   57.0346 C.ar    1  <0>        -0.1000
      8 C8         -8.7713    0.1254   58.3610 C.ar    1  <0>         0.1100
      9 N9         -8.0573    0.6028   59.3640 N.2     1  <0>        -0.3100
     10 N10        -8.1900   -0.2521   60.4641 N.pl3   1  <0>        -0.4200
     11 C11        -8.9944   -1.2772   60.1522 C.2     1  <0>         0.0900
     12 C12        -9.4036   -1.1129   58.8419 C.ar    1  <0>        -0.2100
     13 C13       -10.2336   -1.8383   57.9606 C.ar    1  <0>        -0.0400
     14 C14       -10.4338   -1.3787   56.7000 C.ar    1  <0>        -0.1500
     15 C15        -7.2070    2.4500   52.1711 C.2     1  <0>        -0.0200
     16 N16        -7.2837    3.3663   51.2372 N.2     1  <0>        -0.3200
     17 O17        -6.2791    4.0363   51.1833 O.3     1  <0>         0.1400
     18 C18        -5.3720    3.6487   52.0970 C.2     1  <0>         0.0100
     19 C19        -4.0333    4.2359   52.3213 C.ar    1  <0>         0.0200
     20 C20        -3.5988    5.3403   51.5793 C.ar    1  <0>        -0.1400
     21 C21        -2.3425    5.8564   51.8217 C.ar    1  <0>         0.1100
     22 N22        -1.5559    5.3231   52.7366 N.ar    1  <0>        -0.4800
     23 C23        -1.9261    4.2822   53.4578 C.ar    1  <0>         0.1100
     24 C24        -3.1679    3.7064   53.2853 C.ar    1  <0>        -0.1500
     25 C25        -5.9350    2.6083   52.7814 C.2     1  <0>        -0.1500
     26 H26        -7.2058    0.6280   54.0434 H       1  <0>         0.4100
     27 H27        -9.5590   -0.7366   52.9841 H       1  <0>         0.0800
     28 H28        -8.5929   -1.2427   54.3907 H       1  <0>         0.0800
     29 H29       -10.0024    1.3314   54.7713 H       1  <0>         0.0900
     30 H30       -11.0908   -0.0556   54.5263 H       1  <0>         0.0800
     31 H31        -8.5697    1.4439   56.6541 H       1  <0>         0.1300
     32 H32        -7.7626   -0.1219   61.3251 H       1  <0>         0.4500
     33 H33        -9.2735   -2.0885   60.8081 H       1  <0>         0.1900
     34 H34       -10.7097   -2.7505   58.2888 H       1  <0>         0.1300
     35 H35       -11.0704   -1.9387   56.0311 H       1  <0>         0.1200
     36 H36        -4.2373    5.7816   50.8283 H       1  <0>         0.1400
     37 H37        -1.9982    6.7085   51.2544 H       1  <0>         0.1700
     38 H38        -1.2494    3.8780   54.1960 H       1  <0>         0.1700
     39 H39        -3.4643    2.8544   53.8793 H       1  <0>         0.1500
     40 H40        -5.5092    2.0360   53.5924 H       1  <0>         0.1900
@<TRIPOS>BOND
     1     1     2    2
     2     2     3   am
     3     2    15    1
     4     3     4    1
     5     3    26    1
     6     4     5    1
     7     4    27    1
     8     4    28    1
     9     5     6    1
    10     5    29    1
    11     5    30    1
    12     6    14   ar
    13     6     7   ar
    14     7     8   ar
    15     7    31    1
    16     8    12   ar
    17     8     9    2
    18     9    10    1
    19    10    11    1
    20    10    32    1
    21    11    12    2
    22    11    33    1
    23    12    13   ar
    24    13    14   ar
    25    13    34    1
    26    14    35    1
    27    15    25    1
    28    15    16    2
    29    16    17    1
    30    17    18    1
    31    18    19    1
    32    18    25    2
    33    19    24   ar
    34    19    20   ar
    35    20    21   ar
    36    20    36    1
    37    21    22   ar
    38    21    37    1
    39    22    23   ar
    40    23    24   ar
    41    23    38    1
    42    24    39    1
    43    25    40    1
@<TRIPOS>SUBSTRUCTURE
     1 <0>         1 TEMP              0 ****  ****    0 ROOT


##########                                Name:    ZINC001023148918
##########                DOCK_Rotatable_Bonds:                   6
##########                         Heavy_Atoms:                  25
##########                    Molecular_Weight:             348.402
##########                DOCK_Rotatable_Bonds:                   6
##########                       Formal_Charge:           0.0199999
##########                     HBond_Acceptors:                   8
##########                        HBond_Donors:                   2
##########                         Heavy_Atoms:                  25
##########                          Grid_Score:          -28.477829
##########                     Grid_vdw_energy:          -28.348793
##########                      Grid_es_energy:           -0.129036
##########           Internal_energy_repulsive:           13.461979

@<TRIPOS>MOLECULE
ZINC001023148918
 49 52 1 0 0
SMALL
USER_CHARGES


@<TRIPOS>ATOM
      1 C1        -12.5177    2.2354   63.9173 C.3     1  ZINC001023148918   -0.0700
      2 C2        -11.4324    1.4355   63.2438 C.2     1  ZINC001023148918    0.0200
      3 N3        -10.2851    1.0950   63.7732 N.2     1  ZINC001023148918   -0.2700
      4 N4         -9.5801    0.4153   62.9422 N.pl3   1  ZINC001023148918   -0.2500
      5 C5         -8.2442   -0.1228   63.2107 C.3     1  ZINC001023148918    0.0800
      6 C6        -10.2660    0.2705   61.7698 C.2     1  ZINC001023148918   -0.0400
      7 C7         -9.8133   -0.4405   60.5635 C.2     1  ZINC001023148918    0.6000
      8 O8         -8.6805   -0.8796   60.5056 O.2     1  ZINC001023148918   -0.5300
      9 N9        -10.6540   -0.6053   59.5230 N.am    1  ZINC001023148918   -0.7000
     10 C10       -10.2032   -1.3131   58.3222 C.3     1  ZINC001023148918    0.1500
     11 H11        -9.3083   -1.8997   58.5297 H       1  ZINC001023148918    0.1200
     12 C12        -9.9611   -0.3255   57.1534 C.3     1  ZINC001023148918    0.1000
     13 N13       -10.1242   -1.1372   55.9336 N.am    1  ZINC001023148918   -0.6200
     14 C14        -9.5831   -0.8636   54.7299 C.2     1  ZINC001023148918    0.5400
     15 O15        -9.7838   -1.6057   53.7919 O.2     1  ZINC001023148918   -0.5200
     16 C16        -8.7285    0.3645   54.5497 C.3     1  ZINC001023148918   -0.1400
     17 H17        -7.9379    0.3965   55.2995 H       1  ZINC001023148918    0.1100
     18 C18        -9.5937    1.6491   54.6090 C.3     1  ZINC001023148918   -0.1400
     19 C19        -9.3829    2.2724   53.1965 C.3     1  ZINC001023148918    0.0600
     20 H20       -10.1594    2.9644   52.8704 H       1  ZINC001023148918    0.1300
     21 C21        -7.9363    2.8513   53.2134 C.3     1  ZINC001023148918   -0.1500
     22 C22        -7.0561    1.5765   53.1608 C.3     1  ZINC001023148918   -0.1500
     23 C23        -8.1285    0.4134   53.1125 C.3     1  ZINC001023148918    0.0900
     24 H24        -7.7730   -0.5334   52.7059 H       1  ZINC001023148918    0.1400
     25 O25        -9.2181    1.0700   52.3753 O.3     1  ZINC001023148918   -0.3600
     26 C26       -10.9743   -2.2948   56.2478 C.3     1  ZINC001023148918    0.0700
     27 C27       -11.3331   -2.2072   57.7466 C.3     1  ZINC001023148918    0.0900
     28 H28       -12.3056   -1.7344   57.8834 H       1  ZINC001023148918    0.0800
     29 O29       -11.3143   -3.5036   58.3476 O.3     1  ZINC001023148918   -0.5500
     30 C30       -11.4749    0.9209   61.9460 C.2     1  ZINC001023148918   -0.1800
     31 H31       -13.1970    1.5603   64.4375 H       1  ZINC001023148918    0.0800
     32 H32       -12.0700    2.9239   64.6340 H       1  ZINC001023148918    0.0700
     33 H33       -13.0709    2.8007   63.1672 H       1  ZINC001023148918    0.0800
     34 H34        -8.3347   -1.0954   63.6945 H       1  ZINC001023148918    0.0900
     35 H35        -7.7016   -0.2333   62.2718 H       1  ZINC001023148918    0.1100
     36 H36        -7.7024    0.5597   63.8653 H       1  ZINC001023148918    0.0900
     37 H37       -11.5573   -0.2552   59.5692 H       1  ZINC001023148918    0.4100
     38 H38       -10.6980    0.4773   57.1763 H       1  ZINC001023148918    0.0800
     39 H39        -8.9519    0.0832   57.2051 H       1  ZINC001023148918    0.0900
     40 H40       -10.6430    1.4010   54.7688 H       1  ZINC001023148918    0.0800
     41 H41        -9.2324    2.3226   55.3861 H       1  ZINC001023148918    0.0900
     42 H42        -7.7610    3.4780   52.3390 H       1  ZINC001023148918    0.0800
     43 H43        -7.7542    3.4087   54.1322 H       1  ZINC001023148918    0.0800
     44 H44        -6.4420    1.5681   52.2603 H       1  ZINC001023148918    0.0800
     45 H45        -6.4354    1.4988   54.0534 H       1  ZINC001023148918    0.0800
     46 H46       -11.8828   -2.2618   55.6463 H       1  ZINC001023148918    0.0800
     47 H47       -10.4303   -3.2185   56.0509 H       1  ZINC001023148918    0.0900
     48 H48       -11.6457   -3.5208   59.2559 H       1  ZINC001023148918    0.3900
     49 H49       -12.2779    1.0159   61.2301 H       1  ZINC001023148918    0.1600
@<TRIPOS>BOND
     1     1     2    1
     2     1    31    1
     3     1    32    1
     4     1    33    1
     5     2    30    1
     6     2     3    2
     7     3     4    1
     8     4     5    1
     9     4     6    1
    10     5    34    1
    11     5    35    1
    12     5    36    1
    13     6     7    1
    14     6    30    2
    15     7     8    2
    16     7     9   am
    17     9    10    1
    18     9    37    1
    19    10    11    1
    20    10    27    1
    21    10    12    1
    22    12    13    1
    23    12    38    1
    24    12    39    1
    25    13    14   am
    26    13    26    1
    27    14    15    2
    28    14    16    1
    29    16    17    1
    30    16    23    1
    31    16    18    1
    32    18    19    1
    33    18    40    1
    34    18    41    1
    35    19    20    1
    36    19    25    1
    37    19    21    1
    38    21    22    1
    39    21    42    1
    40    21    43    1
    41    22    23    1
    42    22    44    1
    43    22    45    1
    44    23    24    1
    45    23    25    1
    46    26    27    1
    47    26    46    1
    48    26    47    1
    49    27    28    1
    50    27    29    1
    51    29    48    1
    52    30    49    1
@<TRIPOS>SUBSTRUCTURE
     1 ZINC001023148918        1 TEMP              0 ****  ****    0 ROOT


##########                                Name:    ZINC001345966764
##########                DOCK_Rotatable_Bonds:                  10
##########                         Heavy_Atoms:                  22
##########                    Molecular_Weight:             333.258
##########                DOCK_Rotatable_Bonds:                  10
##########                       Formal_Charge:           0.0099997
##########                     HBond_Acceptors:                  11
##########                        HBond_Donors:                   4
##########                         Heavy_Atoms:                  22
##########                          Grid_Score:          -28.462978
##########                     Grid_vdw_energy:          -25.996159
##########                      Grid_es_energy:           -2.466820
##########           Internal_energy_repulsive:            5.092382

@<TRIPOS>MOLECULE
ZINC001345966764
 38 38 1 0 0
SMALL
USER_CHARGES


@<TRIPOS>ATOM
      1 N1         -7.0366    0.7918   54.3181 N.3     1  ZINC001345966764   -0.8400
      2 C2         -7.6232    1.5612   55.4235 C.3     1  ZINC001345966764    0.0200
      3 C3         -9.1068    1.8075   55.1424 C.3     1  ZINC001345966764    0.2800
      4 F4         -9.6056    2.7426   56.0557 F       1  ZINC001345966764   -0.1900
      5 F5         -9.2596    2.2991   53.8414 F       1  ZINC001345966764   -0.1800
      6 C6         -9.8779    0.4938   55.2850 C.3     1  ZINC001345966764    0.0800
      7 N7         -9.8661    0.0705   56.6875 N.am    1  ZINC001345966764   -0.7000
      8 C8        -10.1398   -1.2099   57.0072 C.2     1  ZINC001345966764    0.5100
      9 O9        -10.3977   -2.0117   56.1336 O.2     1  ZINC001345966764   -0.5100
     10 C10       -10.1260   -1.6423   58.4378 C.2     1  ZINC001345966764    0.5100
     11 O11       -10.4460   -2.7751   58.7324 O.2     1  ZINC001345966764   -0.5100
     12 N12        -9.7582   -0.7739   59.4006 N.am    1  ZINC001345966764   -0.7000
     13 C13        -9.7429   -1.1981   60.8028 C.3     1  ZINC001345966764    0.1200
     14 C14        -8.7923   -0.3002   61.5970 C.3     1  ZINC001345966764    0.0600
     15 H15        -7.7807   -0.3724   61.1976 H       1  ZINC001345966764    0.0900
     16 C16        -9.2811    1.1647   61.5618 C.3     1  ZINC001345966764   -0.1400
     17 C17        -8.9570    1.7027   62.9736 C.3     1  ZINC001345966764   -0.1500
     18 C18        -8.3107    0.4991   63.6946 C.3     1  ZINC001345966764    0.0300
     19 H19        -7.2246    0.5498   63.6187 H       1  ZINC001345966764    0.1200
     20 C20        -8.7398    0.4647   65.1628 C.3     1  ZINC001345966764    0.4600
     21 F21        -7.8788   -0.3721   65.8809 F       1  ZINC001345966764   -0.1700
     22 F22        -8.6852    1.7573   65.6950 F       1  ZINC001345966764   -0.1700
     23 F23       -10.0480   -0.0226   65.2551 F       1  ZINC001345966764   -0.1700
     24 O24        -8.8079   -0.6635   62.9948 O.3     1  ZINC001345966764   -0.3500
     25 H25        -7.0472    1.3243   53.4612 H       1  ZINC001345966764    0.3500
     26 H26        -6.1009    0.4895   54.5445 H       1  ZINC001345966764    0.3600
     27 H27        -7.5176    1.0008   56.3524 H       1  ZINC001345966764    0.1100
     28 H28        -7.1072    2.5169   55.5150 H       1  ZINC001345966764    0.0700
     29 H29       -10.9074    0.6395   54.9582 H       1  ZINC001345966764    0.1100
     30 H30        -9.4065   -0.2728   54.6701 H       1  ZINC001345966764    0.1100
     31 H31        -9.6612    0.7115   57.3859 H       1  ZINC001345966764    0.4200
     32 H32        -9.5036    0.1320   59.1653 H       1  ZINC001345966764    0.4200
     33 H33       -10.7481   -1.1196   61.2171 H       1  ZINC001345966764    0.1000
     34 H34        -9.4037   -2.2321   60.8658 H       1  ZINC001345966764    0.0900
     35 H35        -8.7390    1.7302   60.8039 H       1  ZINC001345966764    0.0900
     36 H36       -10.3543    1.2050   61.3749 H       1  ZINC001345966764    0.0900
     37 H37        -8.2547    2.5341   62.9135 H       1  ZINC001345966764    0.1000
     38 H38        -9.8699    2.0088   63.4845 H       1  ZINC001345966764    0.0900
@<TRIPOS>BOND
     1     1     2    1
     2     1    25    1
     3     1    26    1
     4     2     3    1
     5     2    27    1
     6     2    28    1
     7     3     4    1
     8     3     5    1
     9     3     6    1
    10     6     7    1
    11     6    29    1
    12     6    30    1
    13     7     8   am
    14     7    31    1
    15     8     9    2
    16     8    10    1
    17    10    11    2
    18    10    12   am
    19    12    13    1
    20    12    32    1
    21    13    14    1
    22    13    33    1
    23    13    34    1
    24    14    15    1
    25    14    24    1
    26    14    16    1
    27    16    17    1
    28    16    35    1
    29    16    36    1
    30    17    18    1
    31    17    37    1
    32    17    38    1
    33    18    19    1
    34    18    20    1
    35    18    24    1
    36    20    21    1
    37    20    22    1
    38    20    23    1
@<TRIPOS>SUBSTRUCTURE
     1 ZINC001345966764        1 TEMP              0 ****  ****    0 ROOT


##########                                Name:    ZINC000809503567
##########                DOCK_Rotatable_Bonds:                   9
##########                         Heavy_Atoms:                  26
##########                    Molecular_Weight:             353.378
##########                DOCK_Rotatable_Bonds:                   9
##########                       Formal_Charge:          -0.0200002
##########                     HBond_Acceptors:                   7
##########                        HBond_Donors:                   1
##########                         Heavy_Atoms:                  26
##########                          Grid_Score:          -28.455774
##########                     Grid_vdw_energy:          -26.791430
##########                      Grid_es_energy:           -1.664344
##########           Internal_energy_repulsive:           12.453659

@<TRIPOS>MOLECULE
ZINC000809503567
 45 46 1 0 0
SMALL
USER_CHARGES


@<TRIPOS>ATOM
      1 C1         -7.7340    6.1675   48.5778 C.3     1  ZINC000809503567    0.0200
      2 O2         -6.5213    6.0894   49.3297 O.3     1  ZINC000809503567   -0.3100
      3 C3         -6.4601    5.1466   50.3039 C.ar    1  ZINC000809503567    0.1900
      4 C4         -7.3883    4.1179   50.3364 C.ar    1  ZINC000809503567   -0.2100
      5 C5         -7.3251    3.1588   51.3287 C.ar    1  ZINC000809503567   -0.0200
      6 C6         -6.3370    3.2169   52.2971 C.ar    1  ZINC000809503567   -0.1500
      7 C7         -6.2795    2.1645   53.3743 C.3     1  ZINC000809503567    0.1700
      8 N8         -6.8043    2.7172   54.6254 N.am    1  ZINC000809503567   -0.7000
      9 C9         -7.4319    1.9131   55.5064 C.2     1  ZINC000809503567    0.5100
     10 O10        -7.5635    0.7318   55.2627 O.2     1  ZINC000809503567   -0.4900
     11 C11        -7.9657    2.4767   56.7835 C.2     1  ZINC000809503567    0.5100
     12 O12        -9.1633    2.5885   56.9437 O.2     1  ZINC000809503567   -0.5000
     13 N13        -7.1168    2.8606   57.7575 N.am    1  ZINC000809503567   -0.4600
     14 C14        -7.6399    3.4147   59.0087 C.3     1  ZINC000809503567    0.0800
     15 O15        -5.7193    2.7285   57.5712 O.3     1  ZINC000809503567   -0.1100
     16 C16        -5.0095    3.9685   57.5986 C.3     1  ZINC000809503567    0.0800
     17 C17        -3.5273    3.6982   57.6300 C.ar    1  ZINC000809503567   -0.0900
     18 C18        -2.7853    3.7781   56.4664 C.ar    1  ZINC000809503567   -0.1000
     19 C19        -1.4257    3.5301   56.4952 C.ar    1  ZINC000809503567   -0.1300
     20 C20        -0.8079    3.2027   57.6877 C.ar    1  ZINC000809503567   -0.1100
     21 C21        -1.5497    3.1236   58.8515 C.ar    1  ZINC000809503567   -0.1300
     22 C22        -2.9086    3.3758   58.8234 C.ar    1  ZINC000809503567   -0.0800
     23 C23        -5.4051    4.2328   52.2799 C.ar    1  ZINC000809503567   -0.0100
     24 C24        -5.4542    5.2057   51.2788 C.ar    1  ZINC000809503567   -0.0600
     25 C25        -4.4895    6.2637   51.2549 C.1     1  ZINC000809503567    0.2600
     26 N26        -3.7242    7.1031   51.2360 N.1     1  ZINC000809503567   -0.4100
     27 H27        -8.5644    6.3861   49.2493 H       1  ZINC000809503567    0.0600
     28 H28        -7.6500    6.9600   47.8341 H       1  ZINC000809503567    0.1100
     29 H29        -7.9127    5.2163   48.0766 H       1  ZINC000809503567    0.0600
     30 H30        -8.1625    4.0661   49.5851 H       1  ZINC000809503567    0.1400
     31 H31        -8.0507    2.3592   51.3496 H       1  ZINC000809503567    0.1400
     32 H32        -6.8811    1.3059   53.0758 H       1  ZINC000809503567    0.0900
     33 H33        -5.2460    1.8508   53.5209 H       1  ZINC000809503567    0.0900
     34 H34        -6.7002    3.6619   54.8197 H       1  ZINC000809503567    0.4100
     35 H35        -7.8052    2.6077   59.7224 H       1  ZINC000809503567    0.0800
     36 H36        -6.9211    4.1229   59.4210 H       1  ZINC000809503567    0.0800
     37 H37        -8.5826    3.9260   58.8136 H       1  ZINC000809503567    0.0900
     38 H38        -5.2545    4.5471   56.7078 H       1  ZINC000809503567    0.0700
     39 H39        -5.2951    4.5312   58.4872 H       1  ZINC000809503567    0.0600
     40 H40        -3.2679    4.0339   55.5348 H       1  ZINC000809503567    0.1200
     41 H41        -0.8461    3.5919   55.5860 H       1  ZINC000809503567    0.1200
     42 H42         0.2541    3.0082   57.7101 H       1  ZINC000809503567    0.1200
     43 H43        -1.0671    2.8674   59.7831 H       1  ZINC000809503567    0.1200
     44 H44        -3.4882    3.3141   59.7327 H       1  ZINC000809503567    0.1300
     45 H45        -4.6362    4.2743   53.0371 H       1  ZINC000809503567    0.1400
@<TRIPOS>BOND
     1     1     2    1
     2     1    27    1
     3     1    28    1
     4     1    29    1
     5     2     3    1
     6     3    24   ar
     7     3     4   ar
     8     4     5   ar
     9     4    30    1
    10     5     6   ar
    11     5    31    1
    12     6     7    1
    13     6    23   ar
    14     7     8    1
    15     7    32    1
    16     7    33    1
    17     8     9   am
    18     8    34    1
    19     9    10    2
    20     9    11    1
    21    11    12    2
    22    11    13   am
    23    13    14    1
    24    13    15    1
    25    14    35    1
    26    14    36    1
    27    14    37    1
    28    15    16    1
    29    16    17    1
    30    16    38    1
    31    16    39    1
    32    17    22   ar
    33    17    18   ar
    34    18    19   ar
    35    18    40    1
    36    19    20   ar
    37    19    41    1
    38    20    21   ar
    39    20    42    1
    40    21    22   ar
    41    21    43    1
    42    22    44    1
    43    23    24   ar
    44    23    45    1
    45    24    25    1
    46    25    26    3
@<TRIPOS>SUBSTRUCTURE
     1 ZINC000809503567        1 TEMP              0 ****  ****    0 ROOT


##########                                Name:    ZINC000081577146
##########                DOCK_Rotatable_Bonds:                   4
##########                         Heavy_Atoms:                  25
##########                    Molecular_Weight:             355.464
##########                DOCK_Rotatable_Bonds:                   4
##########                       Formal_Charge:                0.02
##########                     HBond_Acceptors:                   7
##########                        HBond_Donors:                   0
##########                         Heavy_Atoms:                  25
##########                          Grid_Score:          -28.446497
##########                     Grid_vdw_energy:          -28.304190
##########                      Grid_es_energy:           -0.142307
##########           Internal_energy_repulsive:           10.466956

@<TRIPOS>MOLECULE
ZINC000081577146
 46 49 1 0 0
SMALL
USER_CHARGES


@<TRIPOS>ATOM
      1 C1         -1.3632   -2.6436   48.4179 C.3     1  ZINC000081577146   -0.0700
      2 C2         -0.1556   -1.7940   48.7196 C.2     1  ZINC000081577146    0.2900
      3 N3          0.9894   -2.0274   48.1472 N.2     1  ZINC000081577146   -0.4800
      4 S4          2.0590   -0.8573   48.7598 S.3     1  ZINC000081577146    0.1900
      5 C5          0.8801   -0.1087   49.7692 C.2     1  ZINC000081577146    0.2700
      6 N6          1.0568    0.9769   50.6078 N.3     1  ZINC000081577146   -0.4300
      7 C7          1.8587    2.0213   49.9554 C.3     1  ZINC000081577146    0.0700
      8 C8          1.9638    3.2341   50.8830 C.3     1  ZINC000081577146    0.0500
      9 N9          2.5741    2.8232   52.1550 N.3     1  ZINC000081577146   -0.5200
     10 C10         2.7617    3.9762   53.0457 C.3     1  ZINC000081577146    0.1900
     11 H11         2.9428    4.8704   52.4493 H       1  ZINC000081577146    0.0700
     12 C12         3.9604    3.7229   53.9622 C.3     1  ZINC000081577146   -0.1500
     13 C13         1.5231    4.1722   53.8814 C.2     1  ZINC000081577146    0.1900
     14 N14         0.4461    4.8013   53.5021 N.2     1  ZINC000081577146   -0.4500
     15 C15        -0.4465    4.7773   54.5031 C.2     1  ZINC000081577146   -0.0200
     16 C16         0.1171    4.1017   55.5371 C.2     1  ZINC000081577146    0.0000
     17 C17        -0.5010    3.8274   56.8516 C.ar    1  ZINC000081577146   -0.0200
     18 C18         0.1530    3.0129   57.7774 C.ar    1  ZINC000081577146   -0.1000
     19 C19        -0.4291    2.7613   59.0026 C.ar    1  ZINC000081577146   -0.1200
     20 C20        -1.6586    3.3140   59.3143 C.ar    1  ZINC000081577146   -0.1100
     21 C21        -2.3123    4.1218   58.4010 C.ar    1  ZINC000081577146   -0.1100
     22 C22        -1.7384    4.3864   57.1747 C.ar    1  ZINC000081577146   -0.0900
     23 O23         1.3493    3.7231   55.1318 O.3     1  ZINC000081577146   -0.2000
     24 C24         1.7721    1.7787   52.8076 C.3     1  ZINC000081577146    0.0600
     25 C25         1.6670    0.5659   51.8799 C.3     1  ZINC000081577146    0.0500
     26 N26        -0.2266   -0.7916   49.5643 N.2     1  ZINC000081577146   -0.5400
     27 H27        -1.9061   -2.2169   47.5745 H       1  ZINC000081577146    0.0900
     28 H28        -1.0428   -3.6554   48.1693 H       1  ZINC000081577146    0.0900
     29 H29        -2.0142   -2.6730   49.2916 H       1  ZINC000081577146    0.0900
     30 H30         2.8566    1.6359   49.7461 H       1  ZINC000081577146    0.0700
     31 H31         1.3798    2.3176   49.0221 H       1  ZINC000081577146    0.1100
     32 H32         2.5824    3.9987   50.4132 H       1  ZINC000081577146    0.1000
     33 H33         0.9681    3.6360   51.0704 H       1  ZINC000081577146    0.0600
     34 H34         3.7792    2.8288   54.5587 H       1  ZINC000081577146    0.0800
     35 H35         4.8563    3.5811   53.3577 H       1  ZINC000081577146    0.0800
     36 H36         4.0996    4.5784   54.6231 H       1  ZINC000081577146    0.0700
     37 H37        -1.4335    5.2155   54.4891 H       1  ZINC000081577146    0.1900
     38 H38         1.1124    2.5803   57.5350 H       1  ZINC000081577146    0.1300
     39 H39         0.0759    2.1312   59.7199 H       1  ZINC000081577146    0.1300
     40 H40        -2.1101    3.1136   60.2748 H       1  ZINC000081577146    0.1300
     41 H41        -3.2722    4.5496   58.6503 H       1  ZINC000081577146    0.1300
     42 H42        -2.2496    5.0175   56.4628 H       1  ZINC000081577146    0.1300
     43 H43         2.2510    1.4824   53.7408 H       1  ZINC000081577146    0.0900
     44 H44         0.7742    2.1640   53.0168 H       1  ZINC000081577146    0.0500
     45 H45         1.0484   -0.1988   52.3498 H       1  ZINC000081577146    0.1000
     46 H46         2.6627    0.1641   51.6925 H       1  ZINC000081577146    0.0800
@<TRIPOS>BOND
     1     1     2    1
     2     1    27    1
     3     1    28    1
     4     1    29    1
     5     2    26    1
     6     2     3    2
     7     3     4    1
     8     4     5    1
     9     5     6    1
    10     5    26    2
    11     6    25    1
    12     6     7    1
    13     7     8    1
    14     7    30    1
    15     7    31    1
    16     8     9    1
    17     8    32    1
    18     8    33    1
    19     9    10    1
    20     9    24    1
    21    10    11    1
    22    10    12    1
    23    10    13    1
    24    12    34    1
    25    12    35    1
    26    12    36    1
    27    13    23    1
    28    13    14    2
    29    14    15    1
    30    15    16    2
    31    15    37    1
    32    16    17    1
    33    16    23    1
    34    17    22   ar
    35    17    18   ar
    36    18    19   ar
    37    18    38    1
    38    19    20   ar
    39    19    39    1
    40    20    21   ar
    41    20    40    1
    42    21    22   ar
    43    21    41    1
    44    22    42    1
    45    24    25    1
    46    24    43    1
    47    24    44    1
    48    25    45    1
    49    25    46    1
@<TRIPOS>SUBSTRUCTURE
     1 ZINC000081577146        1 TEMP              0 ****  ****    0 ROOT


##########                                Name:    ZINC000962730513
##########                DOCK_Rotatable_Bonds:                   6
##########                         Heavy_Atoms:                  24
##########                    Molecular_Weight:             342.465
##########                DOCK_Rotatable_Bonds:                   6
##########                       Formal_Charge:         -0.00999998
##########                     HBond_Acceptors:                   6
##########                        HBond_Donors:                   1
##########                         Heavy_Atoms:                  24
##########                          Grid_Score:          -28.442722
##########                     Grid_vdw_energy:          -28.707523
##########                      Grid_es_energy:            0.264801
##########           Internal_energy_repulsive:           16.098183

@<TRIPOS>MOLECULE
ZINC000962730513
 46 49 1 0 0
SMALL
USER_CHARGES


@<TRIPOS>ATOM
      1 C1        -14.2160   -1.2459   55.1435 C.3     1  ZINC000962730513   -0.1400
      2 C2        -13.6845    0.0780   54.5905 C.3     1  ZINC000962730513   -0.0800
      3 C3        -12.8717   -0.1862   53.3493 C.2     1  ZINC000962730513   -0.0100
      4 C4        -11.5243   -0.4134   53.3680 C.2     1  ZINC000962730513   -0.2800
      5 C5        -10.6821   -0.4353   54.5676 C.2     1  ZINC000962730513    0.6000
      6 O6         -9.4813   -0.2624   54.4714 O.2     1  ZINC000962730513   -0.5200
      7 N7        -11.2377   -0.6468   55.7771 N.am    1  ZINC000962730513   -0.7000
      8 C8        -10.3959   -0.6704   56.9759 C.3     1  ZINC000962730513    0.1200
      9 H9         -9.3968   -1.0844   56.8399 H       1  ZINC000962730513    0.1400
     10 C10       -11.0866   -0.9216   58.3178 C.3     1  ZINC000962730513   -0.1700
     11 H11       -12.1544   -1.1398   58.3398 H       1  ZINC000962730513    0.1200
     12 C12       -10.2276   -1.4329   59.4941 C.3     1  ZINC000962730513    0.0700
     13 N13        -9.6936   -0.2015   60.1308 N.3     1  ZINC000962730513   -0.5000
     14 C14        -8.4956   -0.4978   60.9277 C.3     1  ZINC000962730513    0.1100
     15 C15        -8.7409   -0.1154   62.3646 C.ar    1  ZINC000962730513    0.3200
     16 N16        -7.7553   -0.2202   63.2334 N.ar    1  ZINC000962730513   -0.5100
     17 C17        -7.9336    0.1063   64.5034 C.ar    1  ZINC000962730513    0.1500
     18 C18        -9.1760    0.5629   64.9141 C.ar    1  ZINC000962730513   -0.1900
     19 C19        -9.4211    0.9457   66.3509 C.3     1  ZINC000962730513   -0.1100
     20 C20       -10.1875    0.6595   63.9715 C.ar    1  ZINC000962730513    0.1500
     21 N21        -9.9337    0.3198   62.7179 N.ar    1  ZINC000962730513   -0.5000
     22 C22        -9.3655    0.6879   58.9869 C.3     1  ZINC000962730513    0.0700
     23 C23       -10.5525    0.4818   57.9702 C.3     1  ZINC000962730513   -0.1700
     24 H24       -11.1971    1.3368   57.7663 H       1  ZINC000962730513    0.1300
     25 S25       -10.9627   -0.6760   51.7226 S.3     1  ZINC000962730513    0.1900
     26 C26       -12.5388   -0.4709   51.1022 C.2     1  ZINC000962730513   -0.2200
     27 C27       -13.4127   -0.2284   52.0864 C.2     1  ZINC000962730513   -0.1500
     28 H28       -14.8440   -1.7269   54.3936 H       1  ZINC000962730513    0.0600
     29 H29       -13.3789   -1.8990   55.3897 H       1  ZINC000962730513    0.0500
     30 H30       -14.8039   -1.0547   56.0413 H       1  ZINC000962730513    0.0600
     31 H31       -14.5217    0.7312   54.3444 H       1  ZINC000962730513    0.1000
     32 H32       -13.0566    0.5591   55.3405 H       1  ZINC000962730513    0.0700
     33 H33       -12.1950   -0.7835   55.8539 H       1  ZINC000962730513    0.4000
     34 H34       -10.8431   -1.9897   60.2006 H       1  ZINC000962730513    0.0900
     35 H35        -9.4117   -2.0553   59.1266 H       1  ZINC000962730513    0.0500
     36 H36        -8.2739   -1.5634   60.8680 H       1  ZINC000962730513    0.1000
     37 H37        -7.6510    0.0713   60.5393 H       1  ZINC000962730513    0.0700
     38 H38        -7.1219    0.0178   65.2102 H       1  ZINC000962730513    0.1700
     39 H39        -9.1945    2.0029   66.4889 H       1  ZINC000962730513    0.0800
     40 H40       -10.4657    0.7622   66.6026 H       1  ZINC000962730513    0.0700
     41 H41        -8.7806    0.3490   67.0002 H       1  ZINC000962730513    0.0700
     42 H42       -11.1685    1.0108   64.2554 H       1  ZINC000962730513    0.1700
     43 H43        -9.3320    1.7279   59.3115 H       1  ZINC000962730513    0.0800
     44 H44        -8.4147    0.3974   58.5401 H       1  ZINC000962730513    0.0600
     45 H45       -12.7975   -0.5327   50.0555 H       1  ZINC000962730513    0.1700
     46 H46       -14.4647   -0.0693   51.9010 H       1  ZINC000962730513    0.1500
@<TRIPOS>BOND
     1     1     2    1
     2     1    28    1
     3     1    29    1
     4     1    30    1
     5     2     3    1
     6     2    31    1
     7     2    32    1
     8     3    27    1
     9     3     4    2
    10     4     5    1
    11     4    25    1
    12     5     6    2
    13     5     7   am
    14     7     8    1
    15     7    33    1
    16     8     9    1
    17     8    23    1
    18     8    10    1
    19    10    11    1
    20    10    23    1
    21    10    12    1
    22    12    13    1
    23    12    34    1
    24    12    35    1
    25    13    14    1
    26    13    22    1
    27    14    15    1
    28    14    36    1
    29    14    37    1
    30    15    21   ar
    31    15    16   ar
    32    16    17   ar
    33    17    18   ar
    34    17    38    1
    35    18    19    1
    36    18    20   ar
    37    19    39    1
    38    19    40    1
    39    19    41    1
    40    20    21   ar
    41    20    42    1
    42    22    23    1
    43    22    43    1
    44    22    44    1
    45    23    24    1
    46    25    26    1
    47    26    27    2
    48    26    45    1
    49    27    46    1
@<TRIPOS>SUBSTRUCTURE
     1 ZINC000962730513        1 TEMP              0 ****  ****    0 ROOT


##########                                Name:    ZINC000816269301
##########                DOCK_Rotatable_Bonds:                   7
##########                         Heavy_Atoms:                  25
##########                    Molecular_Weight:             358.784
##########                DOCK_Rotatable_Bonds:                   7
##########                       Formal_Charge:           0.0100002
##########                     HBond_Acceptors:                   8
##########                        HBond_Donors:                   1
##########                         Heavy_Atoms:                  25
##########                          Grid_Score:          -28.437166
##########                     Grid_vdw_energy:          -27.695217
##########                      Grid_es_energy:           -0.741949
##########           Internal_energy_repulsive:            4.753422

@<TRIPOS>MOLECULE
ZINC000816269301
 40 42 1 0 0
SMALL
USER_CHARGES


@<TRIPOS>ATOM
      1 C1         -7.2615    1.6056   53.6111 C.3     1  ZINC000816269301    0.1000
      2 N2         -8.1183    0.4337   53.8077 N.pl3   1  ZINC000816269301   -0.4000
      3 N3         -8.2450   -0.6649   52.9455 N.2     1  ZINC000816269301    0.0000
      4 N4         -9.0863   -1.5037   53.4388 N.2     1  ZINC000816269301   -0.2000
      5 C5         -9.5641   -1.0446   54.6200 C.ar    1  ZINC000816269301   -0.0300
      6 C6        -10.4799   -1.5573   55.5425 C.ar    1  ZINC000816269301    0.0500
      7 C7        -10.7727   -0.8337   56.6924 C.ar    1  ZINC000816269301   -0.1400
      8 C8        -11.7386   -1.3689   57.6716 C.2     1  ZINC000816269301    0.5200
      9 O9        -12.4697   -2.2888   57.3633 O.2     1  ZINC000816269301   -0.5000
     10 O10       -11.8094   -0.8374   58.9076 O.3     1  ZINC000816269301   -0.3500
     11 C11       -12.9677   -1.1870   59.7102 C.3     1  ZINC000816269301    0.0500
     12 C12       -13.1173   -0.1826   60.8545 C.3     1  ZINC000816269301    0.1200
     13 N13       -11.9455   -0.2617   61.7301 N.am    1  ZINC000816269301   -0.7200
     14 C14       -11.8385    0.5649   62.7893 C.2     1  ZINC000816269301    0.5600
     15 O15       -12.7152    1.3751   63.0189 O.2     1  ZINC000816269301   -0.5300
     16 C16       -10.6556    0.4862   63.6715 C.ar    1  ZINC000816269301   -0.1300
     17 C17        -9.5186   -0.2110   63.2588 C.ar    1  ZINC000816269301   -0.0700
     18 C18        -8.4178   -0.2810   64.0864 C.ar    1  ZINC000816269301   -0.1200
     19 C19        -8.4386    0.3387   65.3250 C.ar    1  ZINC000816269301   -0.0100
     20 Cl20       -7.0488    0.2467   66.3612 Cl      1  ZINC000816269301   -0.0600
     21 C21        -9.5638    1.0318   65.7400 C.ar    1  ZINC000816269301   -0.1200
     22 C22       -10.6685    1.1136   64.9188 C.ar    1  ZINC000816269301   -0.0500
     23 C23       -10.1537    0.4031   56.9260 C.ar    1  ZINC000816269301   -0.0200
     24 C24        -9.2598    0.9082   56.0299 C.ar    1  ZINC000816269301   -0.1300
     25 C25        -8.9485    0.1953   54.8745 C.ar    1  ZINC000816269301    0.1100
     26 H26        -6.2824    1.4179   54.0519 H       1  ZINC000816269301    0.0900
     27 H27        -7.1486    1.7984   52.5442 H       1  ZINC000816269301    0.1000
     28 H28        -7.7158    2.4725   54.0908 H       1  ZINC000816269301    0.1000
     29 H29       -10.9571   -2.5094   55.3631 H       1  ZINC000816269301    0.1600
     30 H30       -13.8619   -1.1639   59.0872 H       1  ZINC000816269301    0.0800
     31 H31       -12.8366   -2.1883   60.1205 H       1  ZINC000816269301    0.1000
     32 H32       -13.1979    0.8247   60.4457 H       1  ZINC000816269301    0.1000
     33 H33       -14.0151   -0.4152   61.4271 H       1  ZINC000816269301    0.0900
     34 H34       -11.2465   -0.9091   61.5476 H       1  ZINC000816269301    0.4000
     35 H35        -9.5013   -0.6949   62.2934 H       1  ZINC000816269301    0.1400
     36 H36        -7.5378   -0.8203   63.7683 H       1  ZINC000816269301    0.1400
     37 H37        -9.5742    1.5129   66.7069 H       1  ZINC000816269301    0.1400
     38 H38       -11.5451    1.6546   65.2432 H       1  ZINC000816269301    0.1500
     39 H39       -10.3874    0.9591   57.8220 H       1  ZINC000816269301    0.1500
     40 H40        -8.7881    1.8614   56.2184 H       1  ZINC000816269301    0.1400
@<TRIPOS>BOND
     1     1     2    1
     2     1    26    1
     3     1    27    1
     4     1    28    1
     5     2    25    1
     6     2     3    1
     7     3     4    2
     8     4     5    1
     9     5    25   ar
    10     5     6   ar
    11     6     7   ar
    12     6    29    1
    13     7     8    1
    14     7    23   ar
    15     8     9    2
    16     8    10    1
    17    10    11    1
    18    11    12    1
    19    11    30    1
    20    11    31    1
    21    12    13    1
    22    12    32    1
    23    12    33    1
    24    13    14   am
    25    13    34    1
    26    14    15    2
    27    14    16    1
    28    16    22   ar
    29    16    17   ar
    30    17    18   ar
    31    17    35    1
    32    18    19   ar
    33    18    36    1
    34    19    20    1
    35    19    21   ar
    36    21    22   ar
    37    21    37    1
    38    22    38    1
    39    23    24   ar
    40    23    39    1
    41    24    25   ar
    42    24    40    1
@<TRIPOS>SUBSTRUCTURE
     1 ZINC000816269301        1 TEMP              0 ****  ****    0 ROOT


##########                                Name:    ZINC001009116151
##########                DOCK_Rotatable_Bonds:                   6
##########                         Heavy_Atoms:                  25
##########                    Molecular_Weight:             342.481
##########                DOCK_Rotatable_Bonds:                   6
##########                       Formal_Charge:           0.0600006
##########                     HBond_Acceptors:                   4
##########                        HBond_Donors:                   1
##########                         Heavy_Atoms:                  25
##########                          Grid_Score:          -28.409414
##########                     Grid_vdw_energy:          -27.850824
##########                      Grid_es_energy:           -0.558591
##########           Internal_energy_repulsive:           10.095197

@<TRIPOS>MOLECULE
ZINC001009116151
 55 59 1 0 0
SMALL
USER_CHARGES


@<TRIPOS>ATOM
      1 O1         -9.8032    2.4949   51.9087 O.2     1  ZINC001009116151   -0.5400
      2 C2         -8.6507    2.1313   52.0114 C.2     1  ZINC001009116151    0.5200
      3 N3         -8.3665    0.8199   52.1377 N.am    1  ZINC001009116151   -0.7300
      4 C4         -9.4501   -0.1659   52.1572 C.3     1  ZINC001009116151    0.1500
      5 C5        -10.1076   -0.1740   53.5386 C.3     1  ZINC001009116151   -0.1200
      6 H6         -9.9844    0.7382   54.1226 H       1  ZINC001009116151    0.1100
      7 C7        -10.1324   -1.5008   54.3000 C.3     1  ZINC001009116151   -0.1700
      8 H8         -9.6310   -2.3718   53.8782 H       1  ZINC001009116151    0.1200
      9 C9        -10.3248   -1.4576   55.8313 C.3     1  ZINC001009116151    0.1300
     10 N10       -11.7938   -1.4518   56.0234 N.am    1  ZINC001009116151   -0.6200
     11 C11       -12.5073   -2.1037   56.9627 C.2     1  ZINC001009116151    0.5500
     12 O12       -11.9415   -2.7956   57.7824 O.2     1  ZINC001009116151   -0.5300
     13 C13       -14.0083   -1.9728   56.9944 C.3     1  ZINC001009116151   -0.1200
     14 C14       -14.6852   -3.1737   56.2939 C.3     1  ZINC001009116151   -0.0900
     15 C15       -14.9671   -4.1578   57.4054 C.2     1  ZINC001009116151   -0.1800
     16 C16       -14.8921   -3.5810   58.5739 C.2     1  ZINC001009116151   -0.1500
     17 C17       -14.5477   -2.1162   58.4366 C.3     1  ZINC001009116151   -0.0900
     18 C18       -12.3005   -0.5669   54.9487 C.3     1  ZINC001009116151    0.1200
     19 C19       -11.4276   -0.9332   53.6868 C.3     1  ZINC001009116151   -0.1600
     20 H20       -11.9365   -1.3810   52.8333 H       1  ZINC001009116151    0.1300
     21 C21        -7.5361    3.1454   51.9914 C.3     1  ZINC001009116151   -0.0700
     22 C22        -6.9342    3.2140   50.5865 C.3     1  ZINC001009116151   -0.1100
     23 C23        -5.8025    4.2434   50.5662 C.3     1  ZINC001009116151   -0.1100
     24 C24        -5.6500    4.8612   51.9577 C.3     1  ZINC001009116151   -0.0900
     25 C25        -6.9574    5.5482   52.3568 C.3     1  ZINC001009116151   -0.1100
     26 C26        -8.0891    4.5188   52.3770 C.3     1  ZINC001009116151   -0.0900
     27 C27        -5.3217    3.7622   52.9703 C.3     1  ZINC001009116151   -0.1100
     28 C28        -6.4534    2.7327   52.9905 C.3     1  ZINC001009116151   -0.1000
     29 H29        -7.4446    0.5288   52.2159 H       1  ZINC001009116151    0.4000
     30 H30       -10.1924    0.0953   51.4030 H       1  ZINC001009116151    0.0800
     31 H31        -9.0454   -1.1547   51.9415 H       1  ZINC001009116151    0.0700
     32 H32        -9.8844   -2.3404   56.2948 H       1  ZINC001009116151    0.0900
     33 H33        -9.8839   -0.5503   56.2444 H       1  ZINC001009116151    0.0800
     34 H34       -14.3261   -1.0296   56.5499 H       1  ZINC001009116151    0.1100
     35 H35       -15.6150   -2.8612   55.8186 H       1  ZINC001009116151    0.0900
     36 H36       -14.0112   -3.6138   55.5590 H       1  ZINC001009116151    0.0800
     37 H37       -15.2004   -5.2011   57.2529 H       1  ZINC001009116151    0.1300
     38 H38       -15.0551   -4.0846   59.5153 H       1  ZINC001009116151    0.1300
     39 H39       -13.7801   -1.8373   59.1585 H       1  ZINC001009116151    0.0900
     40 H40       -15.4382   -1.5024   58.5718 H       1  ZINC001009116151    0.0900
     41 H41       -13.3506   -0.7776   54.7463 H       1  ZINC001009116151    0.0900
     42 H42       -12.1681    0.4794   55.2239 H       1  ZINC001009116151    0.0800
     43 H43        -6.5402    2.2355   50.3119 H       1  ZINC001009116151    0.0700
     44 H44        -7.7056    3.5079   49.8748 H       1  ZINC001009116151    0.0700
     45 H45        -4.8710    3.7539   50.2820 H       1  ZINC001009116151    0.0700
     46 H46        -6.0364    5.0264   49.8449 H       1  ZINC001009116151    0.0700
     47 H47        -4.8437    5.5946   51.9432 H       1  ZINC001009116151    0.0700
     48 H48        -6.8487    5.9883   53.3481 H       1  ZINC001009116151    0.0700
     49 H49        -7.1914    6.3312   51.6353 H       1  ZINC001009116151    0.0700
     50 H50        -8.8605    4.8128   51.6652 H       1  ZINC001009116151    0.0700
     51 H51        -8.5180    4.4699   53.3779 H       1  ZINC001009116151    0.0700
     52 H52        -4.3902    3.2726   52.6860 H       1  ZINC001009116151    0.0700
     53 H53        -5.2130    4.2022   53.9616 H       1  ZINC001009116151    0.0700
     54 H54        -6.8821    2.6838   53.9915 H       1  ZINC001009116151    0.0700
     55 H55        -6.0593    1.7542   52.7159 H       1  ZINC001009116151    0.0700
@<TRIPOS>BOND
     1     1     2    2
     2     2     3   am
     3     2    21    1
     4     3     4    1
     5     3    29    1
     6     4     5    1
     7     4    30    1
     8     4    31    1
     9     5     6    1
    10     5    19    1
    11     5     7    1
    12     7     8    1
    13     7    19    1
    14     7     9    1
    15     9    10    1
    16     9    32    1
    17     9    33    1
    18    10    11   am
    19    10    18    1
    20    11    12    2
    21    11    13    1
    22    13    17    1
    23    13    14    1
    24    13    34    1
    25    14    15    1
    26    14    35    1
    27    14    36    1
    28    15    16    2
    29    15    37    1
    30    16    17    1
    31    16    38    1
    32    17    39    1
    33    17    40    1
    34    18    19    1
    35    18    41    1
    36    18    42    1
    37    19    20    1
    38    21    26    1
    39    21    28    1
    40    21    22    1
    41    22    23    1
    42    22    43    1
    43    22    44    1
    44    23    24    1
    45    23    45    1
    46    23    46    1
    47    24    25    1
    48    24    27    1
    49    24    47    1
    50    25    26    1
    51    25    48    1
    52    25    49    1
    53    26    50    1
    54    26    51    1
    55    27    28    1
    56    27    52    1
    57    27    53    1
    58    28    54    1
    59    28    55    1
@<TRIPOS>SUBSTRUCTURE
     1 ZINC001009116151        1 TEMP              0 ****  ****    0 ROOT


##########                                Name:    ZINC000626935317
##########                DOCK_Rotatable_Bonds:                   6
##########                         Heavy_Atoms:                  25
##########                    Molecular_Weight:             366.441
##########                DOCK_Rotatable_Bonds:                   6
##########                       Formal_Charge:          -0.0200006
##########                     HBond_Acceptors:                   9
##########                        HBond_Donors:                   2
##########                         Heavy_Atoms:                  25
##########                          Grid_Score:          -28.375341
##########                     Grid_vdw_energy:          -27.856962
##########                      Grid_es_energy:           -0.518378
##########           Internal_energy_repulsive:           11.452725

@<TRIPOS>MOLECULE
ZINC000626935317
 47 49 1 0 0
SMALL
USER_CHARGES


@<TRIPOS>ATOM
      1 C1         -8.9838    3.4463   61.9832 C.3     1  ZINC000626935317    0.0900
      2 N2         -9.1620    2.2130   61.2128 N.am    1  ZINC000626935317   -0.6200
      3 C3         -8.5465    1.9515   60.0468 C.2     1  ZINC000626935317    0.5200
      4 O4         -7.7759    2.7006   59.4848 O.2     1  ZINC000626935317   -0.5200
      5 C5         -8.9545    0.5865   59.5377 C.3     1  ZINC000626935317   -0.1500
      6 C6         -9.5802   -0.1064   60.7704 C.3     1  ZINC000626935317   -0.1200
      7 H7         -8.8367   -0.6973   61.3051 H       1  ZINC000626935317    0.1200
      8 C8        -10.7568   -0.9589   60.3704 C.2     1  ZINC000626935317    0.5300
      9 O9        -11.7373   -1.0117   61.0822 O.2     1  ZINC000626935317   -0.5200
     10 N10       -10.7193   -1.6628   59.2216 N.am    1  ZINC000626935317   -0.7100
     11 C11       -11.8623   -2.4930   58.8336 C.3     1  ZINC000626935317    0.1200
     12 C12       -12.7458   -1.8562   57.7479 C.3     1  ZINC000626935317   -0.1600
     13 C13       -11.8323   -2.5377   56.7155 C.3     1  ZINC000626935317    0.1200
     14 N14       -10.6784   -1.7239   56.3253 N.am    1  ZINC000626935317   -1.1100
     15 S15       -10.7941   -0.6851   55.0408 S.o2    1  ZINC000626935317    2.6100
     16 C16        -9.1570    0.0893   54.9362 C.3     1  ZINC000626935317   -0.6700
     17 O17       -11.0167   -1.5335   53.9229 O.2     1  ZINC000626935317   -0.9500
     18 O18       -11.7703    0.2650   55.4455 O.2     1  ZINC000626935317   -0.9500
     19 C19       -11.5131   -3.5785   57.8018 C.3     1  ZINC000626935317   -0.1600
     20 C20       -10.0308    1.1017   61.6181 C.3     1  ZINC000626935317    0.2000
     21 H21       -11.0710    1.3464   61.4031 H       1  ZINC000626935317    0.1100
     22 C22        -9.8586    0.8027   63.0850 C.ar    1  ZINC000626935317   -0.1600
     23 C23        -8.6303    0.3897   63.5777 C.ar    1  ZINC000626935317   -0.0500
     24 C24        -8.5183    0.1262   64.9346 C.ar    1  ZINC000626935317   -0.1700
     25 C25        -9.6265    0.2830   65.7447 C.ar    1  ZINC000626935317    0.1000
     26 N26       -10.7798    0.6779   65.2413 N.ar    1  ZINC000626935317   -0.4800
     27 C27       -10.9217    0.9423   63.9573 C.ar    1  ZINC000626935317    0.1200
     28 H28        -8.1546    3.3229   62.6799 H       1  ZINC000626935317    0.0600
     29 H29        -8.7680    4.2711   61.3040 H       1  ZINC000626935317    0.0800
     30 H30        -9.8962    3.6625   62.5390 H       1  ZINC000626935317    0.0700
     31 H31        -9.6901    0.6815   58.7391 H       1  ZINC000626935317    0.1100
     32 H32        -8.0824    0.0326   59.1906 H       1  ZINC000626935317    0.1200
     33 H33        -9.9355   -1.6197   58.6517 H       1  ZINC000626935317    0.4000
     34 H34       -12.4227   -2.8685   59.6897 H       1  ZINC000626935317    0.1100
     35 H35       -13.7688   -2.2323   57.7414 H       1  ZINC000626935317    0.1100
     36 H36       -12.6939   -0.7676   57.7257 H       1  ZINC000626935317    0.0800
     37 H37       -12.3696   -2.9478   55.8604 H       1  ZINC000626935317    0.1100
     38 H38        -9.8464   -1.7937   56.8192 H       1  ZINC000626935317    0.4100
     39 H39        -8.4015   -0.6788   54.7715 H       1  ZINC000626935317    0.1300
     40 H40        -9.1423    0.7972   54.1074 H       1  ZINC000626935317    0.1300
     41 H41        -8.9437    0.6152   55.8669 H       1  ZINC000626935317    0.1300
     42 H42       -10.4659   -3.8804   57.8230 H       1  ZINC000626935317    0.0900
     43 H43       -12.1991   -4.4254   57.8099 H       1  ZINC000626935317    0.1100
     44 H44        -7.7811    0.2754   62.9204 H       1  ZINC000626935317    0.1400
     45 H45        -7.5766   -0.1977   65.3527 H       1  ZINC000626935317    0.1400
     46 H46        -9.5477    0.0796   66.8024 H       1  ZINC000626935317    0.1600
     47 H47       -11.8818    1.2634   63.5813 H       1  ZINC000626935317    0.1500
@<TRIPOS>BOND
     1     1     2    1
     2     1    28    1
     3     1    29    1
     4     1    30    1
     5     2    20    1
     6     2     3   am
     7     3     4    2
     8     3     5    1
     9     5     6    1
    10     5    31    1
    11     5    32    1
    12     6     7    1
    13     6     8    1
    14     6    20    1
    15     8     9    2
    16     8    10   am
    17    10    11    1
    18    10    33    1
    19    11    19    1
    20    11    12    1
    21    11    34    1
    22    12    13    1
    23    12    35    1
    24    12    36    1
    25    13    14    1
    26    13    19    1
    27    13    37    1
    28    14    15   am
    29    14    38    1
    30    15    16    1
    31    15    17    2
    32    15    18    2
    33    16    39    1
    34    16    40    1
    35    16    41    1
    36    19    42    1
    37    19    43    1
    38    20    21    1
    39    20    22    1
    40    22    27   ar
    41    22    23   ar
    42    23    24   ar
    43    23    44    1
    44    24    25   ar
    45    24    45    1
    46    25    26   ar
    47    25    46    1
    48    26    27   ar
    49    27    47    1
@<TRIPOS>SUBSTRUCTURE
     1 ZINC000626935317        1 TEMP              0 ****  ****    0 ROOT


##########                                Name:    ZINC001053433946
##########                DOCK_Rotatable_Bonds:                   6
##########                         Heavy_Atoms:                  24
##########                    Molecular_Weight:             337.419
##########                DOCK_Rotatable_Bonds:                   6
##########                       Formal_Charge:               -0.02
##########                     HBond_Acceptors:                   7
##########                        HBond_Donors:                   2
##########                         Heavy_Atoms:                  24
##########                          Grid_Score:          -28.358231
##########                     Grid_vdw_energy:          -26.606890
##########                      Grid_es_energy:           -1.751342
##########           Internal_energy_repulsive:           14.713148

@<TRIPOS>MOLECULE
ZINC001053433946
 51 54 1 0 0
SMALL
USER_CHARGES


@<TRIPOS>ATOM
      1 N1         -9.4234    0.8890   66.5310 N.am    1  ZINC001053433946   -0.8300
      2 C2        -10.0304    1.5392   65.5184 C.2     1  ZINC001053433946    0.5600
      3 O3        -11.2302    1.4436   65.3689 O.2     1  ZINC001053433946   -0.5500
      4 C4         -9.2182    2.3851   64.5719 C.3     1  ZINC001053433946   -0.1600
      5 H5         -8.4981    3.0557   65.0405 H       1  ZINC001053433946    0.1400
      6 C6         -9.9021    2.8665   63.2906 C.3     1  ZINC001053433946   -0.1300
      7 C7         -8.8368    1.7693   63.2242 C.3     1  ZINC001053433946   -0.1700
      8 H8         -7.8659    2.0351   62.8060 H       1  ZINC001053433946    0.1400
      9 C9         -9.3022    0.3636   62.9441 C.2     1  ZINC001053433946    0.5400
     10 O10        -9.1525   -0.5026   63.7796 O.2     1  ZINC001053433946   -0.5200
     11 N11        -9.8850    0.0691   61.7650 N.am    1  ZINC001053433946   -0.6100
     12 C12       -10.3481   -1.2952   61.4671 C.3     1  ZINC001053433946    0.0700
     13 C13        -9.7560   -1.7332   60.1234 C.3     1  ZINC001053433946    0.0500
     14 O14       -10.0789   -0.7614   59.1238 O.3     1  ZINC001053433946   -0.3400
     15 C15        -9.5781    0.5434   59.4016 C.3     1  ZINC001053433946    0.0800
     16 C16        -8.0610    0.6765   59.2130 C.3     1  ZINC001053433946   -0.0100
     17 N17        -8.3725    1.0775   57.8223 N.3     1  ZINC001053433946   -0.4700
     18 C18        -7.5446    2.2171   57.4050 C.3     1  ZINC001053433946    0.0200
     19 C19        -7.7571    2.4825   55.9132 C.3     1  ZINC001053433946   -0.1200
     20 H20        -8.7831    2.8090   55.7439 H       1  ZINC001053433946    0.0800
     21 C21        -6.7890    3.5731   55.4444 C.3     1  ZINC001053433946   -0.1200
     22 C22        -6.9568    3.7750   53.9353 C.3     1  ZINC001053433946   -0.1600
     23 C23        -6.7204    2.4420   53.2206 C.3     1  ZINC001053433946    0.0600
     24 O24        -7.6325    1.4643   53.7251 O.3     1  ZINC001053433946   -0.3800
     25 C25        -7.4915    1.1990   55.1222 C.3     1  ZINC001053433946    0.0700
     26 C26        -9.7234    1.5246   58.2308 C.3     1  ZINC001053433946    0.0200
     27 C27       -10.0839    1.1046   60.7359 C.3     1  ZINC001053433946    0.1000
     28 H28        -9.9461    0.3436   67.1395 H       1  ZINC001053433946    0.4000
     29 H29        -8.4635    0.9631   66.6488 H       1  ZINC001053433946    0.4000
     30 H30       -10.9394    2.5715   63.1324 H       1  ZINC001053433946    0.1100
     31 H31        -9.6315    3.8538   62.9163 H       1  ZINC001053433946    0.1200
     32 H32       -10.0147   -1.9740   62.2521 H       1  ZINC001053433946    0.1000
     33 H33       -11.4364   -1.3071   61.4084 H       1  ZINC001053433946    0.0800
     34 H34        -8.6730   -1.8168   60.2131 H       1  ZINC001053433946    0.0600
     35 H35       -10.1734   -2.6994   59.8397 H       1  ZINC001053433946    0.1100
     36 H36        -7.6119    1.4708   59.8093 H       1  ZINC001053433946    0.0800
     37 H37        -7.5240   -0.2692   59.2880 H       1  ZINC001053433946    0.0900
     38 H38        -7.8293    3.1012   57.9755 H       1  ZINC001053433946    0.0500
     39 H39        -6.4945    1.9893   57.5876 H       1  ZINC001053433946    0.0800
     40 H40        -7.0107    4.5054   55.9639 H       1  ZINC001053433946    0.0700
     41 H41        -5.7648    3.2687   55.6599 H       1  ZINC001053433946    0.0700
     42 H42        -7.9666    4.1272   53.7250 H       1  ZINC001053433946    0.0700
     43 H43        -6.2330    4.5103   53.5835 H       1  ZINC001053433946    0.0700
     44 H44        -6.8805    2.5702   52.1501 H       1  ZINC001053433946    0.0900
     45 H45        -5.6974    2.1106   53.3983 H       1  ZINC001053433946    0.0500
     46 H46        -6.4787    0.8513   55.3258 H       1  ZINC001053433946    0.0500
     47 H47        -8.2061    0.4320   55.4206 H       1  ZINC001053433946    0.1000
     48 H48       -10.5084    1.2534   57.5249 H       1  ZINC001053433946    0.1000
     49 H49        -9.7668    2.5700   58.5363 H       1  ZINC001053433946    0.0900
     50 H50       -11.1422    1.3523   60.6537 H       1  ZINC001053433946    0.0800
     51 H51        -9.5157    1.9967   60.9993 H       1  ZINC001053433946    0.1000
@<TRIPOS>BOND
     1     1     2   am
     2     1    28    1
     3     1    29    1
     4     2     3    2
     5     2     4    1
     6     4     5    1
     7     4     7    1
     8     4     6    1
     9     6     7    1
    10     6    30    1
    11     6    31    1
    12     7     8    1
    13     7     9    1
    14     9    10    2
    15     9    11   am
    16    11    27    1
    17    11    12    1
    18    12    13    1
    19    12    32    1
    20    12    33    1
    21    13    14    1
    22    13    34    1
    23    13    35    1
    24    14    15    1
    25    15    26    1
    26    15    16    1
    27    15    27    1
    28    16    17    1
    29    16    36    1
    30    16    37    1
    31    17    18    1
    32    17    26    1
    33    18    19    1
    34    18    38    1
    35    18    39    1
    36    19    20    1
    37    19    25    1
    38    19    21    1
    39    21    22    1
    40    21    40    1
    41    21    41    1
    42    22    23    1
    43    22    42    1
    44    22    43    1
    45    23    24    1
    46    23    44    1
    47    23    45    1
    48    24    25    1
    49    25    46    1
    50    25    47    1
    51    26    48    1
    52    26    49    1
    53    27    50    1
    54    27    51    1
@<TRIPOS>SUBSTRUCTURE
     1 ZINC001053433946        1 TEMP              0 ****  ****    0 ROOT


##########                                Name:    ZINC001220171460
##########                DOCK_Rotatable_Bonds:                  10
##########                         Heavy_Atoms:                  25
##########                    Molecular_Weight:             383.773
##########                DOCK_Rotatable_Bonds:                  10
##########                       Formal_Charge:           0.0199996
##########                     HBond_Acceptors:                  10
##########                        HBond_Donors:                   3
##########                         Heavy_Atoms:                  25
##########                          Grid_Score:          -28.357740
##########                     Grid_vdw_energy:          -26.980515
##########                      Grid_es_energy:           -1.377226
##########           Internal_energy_repulsive:            9.946579

@<TRIPOS>MOLECULE
ZINC001220171460
 43 44 1 0 0
SMALL
USER_CHARGES


@<TRIPOS>ATOM
      1 C1        -10.4084   -1.0606   52.2103 C.3     1  ZINC001220171460    0.0200
      2 O2         -9.4287   -1.4934   53.1561 O.3     1  ZINC001220171460   -0.3100
      3 C3         -9.4360   -0.8874   54.3740 C.ar    1  ZINC001220171460    0.1000
      4 C4        -10.3134   -1.3152   55.3561 C.ar    1  ZINC001220171460   -0.1500
      5 C5        -10.3204   -0.6983   56.5949 C.ar    1  ZINC001220171460   -0.0600
      6 Cl6       -11.4210   -1.2368   57.8248 Cl      1  ZINC001220171460   -0.0400
      7 C7         -9.4507    0.3478   56.8555 C.ar    1  ZINC001220171460    0.1000
      8 F8         -9.4602    0.9472   58.0662 F       1  ZINC001220171460   -0.1200
      9 C9         -8.5714    0.7797   55.8776 C.ar    1  ZINC001220171460   -0.1200
     10 C10        -8.5569    0.1607   54.6367 C.ar    1  ZINC001220171460    0.1800
     11 N11        -7.6671    0.5965   53.6448 N.am    1  ZINC001220171460   -0.6700
     12 C12        -7.8703    1.7781   53.0292 C.2     1  ZINC001220171460    0.7100
     13 O13        -8.8253    2.4662   53.3340 O.2     1  ZINC001220171460   -0.5700
     14 N14        -7.0149    2.1971   52.0756 N.am    1  ZINC001220171460   -0.7400
     15 C15        -7.2368    3.4807   51.4052 C.3     1  ZINC001220171460    0.1400
     16 C16        -5.9910    3.8582   50.6012 C.3     1  ZINC001220171460   -0.1400
     17 C17        -6.0743    5.3303   50.1929 C.3     1  ZINC001220171460    0.0500
     18 H18        -5.5737    5.4705   49.2348 H       1  ZINC001220171460    0.1000
     19 N19        -7.4838    5.7258   50.0713 N.3     1  ZINC001220171460   -0.6500
     20 C20        -7.8665    5.8842   48.6619 C.3     1  ZINC001220171460    0.0100
     21 C21        -8.7194    4.7807   48.0330 C.3     1  ZINC001220171460   -0.2000
     22 C22        -9.3434    6.1400   48.3552 C.3     1  ZINC001220171460   -0.1600
     23 C23        -5.3921    6.1939   51.2558 C.3     1  ZINC001220171460    0.4600
     24 F24        -5.8480    5.8191   52.5241 F       1  ZINC001220171460   -0.1800
     25 F25        -4.0068    6.0122   51.1857 F       1  ZINC001220171460   -0.1800
     26 F26        -5.6979    7.5403   51.0294 F       1  ZINC001220171460   -0.1700
     27 H27       -11.4056   -1.2309   52.6163 H       1  ZINC001220171460    0.0600
     28 H28       -10.2748    0.0024   52.0093 H       1  ZINC001220171460    0.0600
     29 H29       -10.2924   -1.6228   51.2837 H       1  ZINC001220171460    0.1100
     30 H30       -10.9929   -2.1304   55.1553 H       1  ZINC001220171460    0.1500
     31 H31        -7.8940    1.5956   56.0822 H       1  ZINC001220171460    0.1800
     32 H32        -6.9051    0.0476   53.4015 H       1  ZINC001220171460    0.4200
     33 H33        -6.2523    1.6488   51.8332 H       1  ZINC001220171460    0.4000
     34 H34        -8.0911    3.3969   50.7335 H       1  ZINC001220171460    0.0800
     35 H35        -7.4351    4.2506   52.1509 H       1  ZINC001220171460    0.0700
     36 H36        -5.1025    3.7005   51.2125 H       1  ZINC001220171460    0.1000
     37 H37        -5.9326    3.2361   49.7081 H       1  ZINC001220171460    0.1000
     38 H38        -8.0865    5.0642   50.5373 H       1  ZINC001220171460    0.3600
     39 H39        -7.1283    6.3739   48.0265 H       1  ZINC001220171460    0.1200
     40 H40        -8.5426    4.5441   46.9838 H       1  ZINC001220171460    0.1000
     41 H41        -8.9968    3.9371   48.6652 H       1  ZINC001220171460    0.1000
     42 H42       -10.0312    6.1907   49.1992 H       1  ZINC001220171460    0.1000
     43 H43        -9.5770    6.7977   47.5179 H       1  ZINC001220171460    0.1000
@<TRIPOS>BOND
     1     1     2    1
     2     1    27    1
     3     1    28    1
     4     1    29    1
     5     2     3    1
     6     3    10   ar
     7     3     4   ar
     8     4     5   ar
     9     4    30    1
    10     5     6    1
    11     5     7   ar
    12     7     8    1
    13     7     9   ar
    14     9    10   ar
    15     9    31    1
    16    10    11    1
    17    11    12   am
    18    11    32    1
    19    12    13    2
    20    12    14   am
    21    14    15    1
    22    14    33    1
    23    15    16    1
    24    15    34    1
    25    15    35    1
    26    16    17    1
    27    16    36    1
    28    16    37    1
    29    17    18    1
    30    17    19    1
    31    17    23    1
    32    19    20    1
    33    19    38    1
    34    20    22    1
    35    20    21    1
    36    20    39    1
    37    21    22    1
    38    21    40    1
    39    21    41    1
    40    22    42    1
    41    22    43    1
    42    23    24    1
    43    23    25    1
    44    23    26    1
@<TRIPOS>SUBSTRUCTURE
     1 ZINC001220171460        1 TEMP              0 ****  ****    0 ROOT


##########                                Name:    ZINC000347662449
##########                DOCK_Rotatable_Bonds:                   5
##########                         Heavy_Atoms:                  23
##########                    Molecular_Weight:              327.45
##########                DOCK_Rotatable_Bonds:                   5
##########                       Formal_Charge:                0.03
##########                     HBond_Acceptors:                   5
##########                        HBond_Donors:                   0
##########                         Heavy_Atoms:                  23
##########                          Grid_Score:          -28.352903
##########                     Grid_vdw_energy:          -27.646452
##########                      Grid_es_energy:           -0.706451
##########           Internal_energy_repulsive:            6.263931

@<TRIPOS>MOLECULE
ZINC000347662449
 44 46 1 0 0
SMALL
USER_CHARGES


@<TRIPOS>ATOM
      1 C1         -7.9926    0.8456   53.0732 C.2     1  ZINC000347662449   -0.1800
      2 C2         -7.0296    1.2297   53.8740 C.2     1  ZINC000347662449   -0.1700
      3 C3         -7.1705    2.5049   54.6644 C.3     1  ZINC000347662449    0.1600
      4 N4         -7.4749    2.1828   56.0608 N.am    1  ZINC000347662449   -0.6200
      5 C5         -6.7671    2.7499   57.2147 C.3     1  ZINC000347662449    0.1100
      6 C6         -7.6814    2.4829   58.4309 C.3     1  ZINC000347662449   -0.1100
      7 C7         -8.4795    1.2452   57.9596 C.3     1  ZINC000347662449   -0.1200
      8 H8         -8.0003    0.3286   58.3035 H       1  ZINC000347662449    0.1400
      9 S9        -10.1866    1.3277   58.5557 S.3     1  ZINC000347662449    0.0300
     10 C10       -10.5398   -0.3916   58.7112 C.2     1  ZINC000347662449    0.1900
     11 N11       -10.8993   -1.1933   57.7358 N.2     1  ZINC000347662449   -0.4500
     12 C12       -11.0834   -2.4322   58.2226 C.2     1  ZINC000347662449   -0.0100
     13 C13       -10.8327   -2.4110   59.5429 C.2     1  ZINC000347662449   -0.0400
     14 N14       -10.4806   -1.1175   59.8643 N.pl3   1  ZINC000347662449   -0.4000
     15 C15       -10.1356   -0.6379   61.1357 C.ar    1  ZINC000347662449    0.1100
     16 C16        -8.8342   -0.7715   61.5997 C.ar    1  ZINC000347662449   -0.1100
     17 C17        -8.4972   -0.2980   62.8530 C.ar    1  ZINC000347662449   -0.1000
     18 C18        -9.4546    0.3085   63.6448 C.ar    1  ZINC000347662449   -0.0800
     19 C19        -9.0835    0.8245   65.0112 C.3     1  ZINC000347662449   -0.1200
     20 C20       -10.7520    0.4430   63.1852 C.ar    1  ZINC000347662449   -0.0700
     21 C21       -11.7926    1.1047   64.0514 C.3     1  ZINC000347662449   -0.1200
     22 C22       -11.0936   -0.0232   61.9309 C.ar    1  ZINC000347662449   -0.1100
     23 C23        -8.4422    1.3344   56.4499 C.2     1  ZINC000347662449    0.5300
     24 O24        -9.1736    0.7236   55.6997 O.2     1  ZINC000347662449   -0.4900
     25 H25        -8.8875    1.4429   52.9795 H       1  ZINC000347662449    0.1000
     26 H26        -7.8897   -0.0661   52.5034 H       1  ZINC000347662449    0.1000
     27 H27        -6.1347    0.6324   53.9676 H       1  ZINC000347662449    0.1100
     28 H28        -6.2380    3.0672   54.6162 H       1  ZINC000347662449    0.0900
     29 H29        -7.9785    3.1047   54.2454 H       1  ZINC000347662449    0.0900
     30 H30        -5.8061    2.2533   57.3490 H       1  ZINC000347662449    0.0800
     31 H31        -6.6229    3.8218   57.0792 H       1  ZINC000347662449    0.0900
     32 H32        -7.0924    2.2523   59.3186 H       1  ZINC000347662449    0.1100
     33 H33        -8.3447    3.3284   58.6134 H       1  ZINC000347662449    0.0900
     34 H34       -11.3820   -3.2980   57.6502 H       1  ZINC000347662449    0.1800
     35 H35       -10.8922   -3.2486   60.2220 H       1  ZINC000347662449    0.1800
     36 H36        -8.0859   -1.2454   60.9818 H       1  ZINC000347662449    0.1300
     37 H37        -7.4848   -0.4020   63.2146 H       1  ZINC000347662449    0.1300
     38 H38        -8.7550    1.8607   64.9314 H       1  ZINC000347662449    0.0800
     39 H39        -9.9511    0.7680   65.6688 H       1  ZINC000347662449    0.0700
     40 H40        -8.2763    0.2179   65.4218 H       1  ZINC000347662449    0.0700
     41 H41       -11.8042    2.1761   63.8513 H       1  ZINC000347662449    0.0800
     42 H42       -12.7727    0.6829   63.8283 H       1  ZINC000347662449    0.0700
     43 H43       -11.5539    0.9336   65.1010 H       1  ZINC000347662449    0.0800
     44 H44       -12.1068    0.0823   61.5724 H       1  ZINC000347662449    0.1300
@<TRIPOS>BOND
     1     1     2    2
     2     1    25    1
     3     1    26    1
     4     2     3    1
     5     2    27    1
     6     3     4    1
     7     3    28    1
     8     3    29    1
     9     4    23   am
    10     4     5    1
    11     5     6    1
    12     5    30    1
    13     5    31    1
    14     6     7    1
    15     6    32    1
    16     6    33    1
    17     7     8    1
    18     7     9    1
    19     7    23    1
    20     9    10    1
    21    10    14    1
    22    10    11    2
    23    11    12    1
    24    12    13    2
    25    12    34    1
    26    13    14    1
    27    13    35    1
    28    14    15    1
    29    15    22   ar
    30    15    16   ar
    31    16    17   ar
    32    16    36    1
    33    17    18   ar
    34    17    37    1
    35    18    19    1
    36    18    20   ar
    37    19    38    1
    38    19    39    1
    39    19    40    1
    40    20    21    1
    41    20    22   ar
    42    21    41    1
    43    21    42    1
    44    21    43    1
    45    22    44    1
    46    23    24    2
@<TRIPOS>SUBSTRUCTURE
     1 ZINC000347662449        1 TEMP              0 ****  ****    0 ROOT


##########                                Name:    ZINC000854500114
##########                DOCK_Rotatable_Bonds:                   7
##########                         Heavy_Atoms:                  24
##########                    Molecular_Weight:             399.288
##########                DOCK_Rotatable_Bonds:                   7
##########                       Formal_Charge:          -0.0399992
##########                     HBond_Acceptors:                   7
##########                        HBond_Donors:                   2
##########                         Heavy_Atoms:                  24
##########                          Grid_Score:          -28.352354
##########                     Grid_vdw_energy:          -26.846050
##########                      Grid_es_energy:           -1.506304
##########           Internal_energy_repulsive:           75.320732

@<TRIPOS>MOLECULE
ZINC000854500114
 47 49 1 0 0
SMALL
USER_CHARGES


@<TRIPOS>ATOM
      1 O1         -9.3048    0.3068   61.7524 O.2     1  ZINC000854500114   -0.5800
      2 C2         -8.9341    1.4162   62.0816 C.2     1  ZINC000854500114    0.6600
      3 N3         -9.0362    1.8068   63.3676 N.am    1  ZINC000854500114   -0.7100
      4 C4         -9.5996    0.8960   64.3673 C.3     1  ZINC000854500114    0.1600
      5 C5         -8.4712    0.0903   65.0435 C.3     1  ZINC000854500114   -0.1400
      6 C6         -8.1604    0.8839   66.3368 C.3     1  ZINC000854500114   -0.1300
      7 C7         -9.5633    1.3543   66.7946 C.3     1  ZINC000854500114   -0.1300
      8 C8        -10.2939    1.6997   65.4806 C.3     1  ZINC000854500114   -0.1300
      9 O9         -8.4163    2.2532   61.1630 O.3     1  ZINC000854500114   -0.3600
     10 C10        -8.3024    1.7524   59.8049 C.3     1  ZINC000854500114    0.1000
     11 C11        -8.0784    2.9238   58.8465 C.3     1  ZINC000854500114    0.1500
     12 H12        -7.1099    3.3812   59.0485 H       1  ZINC000854500114    0.0900
     13 C13        -9.1873    3.9634   59.0381 C.3     1  ZINC000854500114   -0.1300
     14 C14        -9.0376    5.0631   57.9843 C.3     1  ZINC000854500114   -0.1200
     15 C15        -9.1811    4.4559   56.5869 C.3     1  ZINC000854500114   -0.1400
     16 C16        -8.0722    3.4218   56.3675 C.3     1  ZINC000854500114    0.0900
     17 N17        -8.1148    2.4396   57.4598 N.am    1  ZINC000854500114   -0.6100
     18 C18        -8.1909    1.1203   57.1944 C.2     1  ZINC000854500114    0.5900
     19 O19        -8.2254    0.3174   58.1073 O.2     1  ZINC000854500114   -0.4900
     20 C20        -8.2321    0.6515   55.8001 C.2     1  ZINC000854500114   -0.0300
     21 C21        -9.3180    0.1032   55.1401 C.2     1  ZINC000854500114   -0.1200
     22 C22        -8.8625   -0.1792   53.8494 C.2     1  ZINC000854500114    0.0200
     23 Br23       -9.8799   -0.9469   52.4524 Br      1  ZINC000854500114    0.0400
     24 N24        -7.6064    0.1827   53.7793 N.2     1  ZINC000854500114   -0.2400
     25 N25        -7.2082    0.6758   54.8964 N.pl3   1  ZINC000854500114   -0.3700
     26 H26        -8.7366    2.6909   63.6312 H       1  ZINC000854500114    0.4000
     27 H27       -10.3119    0.2190   63.8957 H       1  ZINC000854500114    0.0900
     28 H28        -8.8136   -0.9157   65.2862 H       1  ZINC000854500114    0.0800
     29 H29        -7.5924    0.0504   64.3999 H       1  ZINC000854500114    0.0700
     30 H30        -7.7060    0.2368   67.0872 H       1  ZINC000854500114    0.0700
     31 H31        -7.5179    1.7375   66.1212 H       1  ZINC000854500114    0.0700
     32 H32       -10.0819    0.5525   67.3201 H       1  ZINC000854500114    0.0700
     33 H33        -9.4814    2.2370   67.4290 H       1  ZINC000854500114    0.0700
     34 H34       -10.2118    2.7674   65.2772 H       1  ZINC000854500114    0.0700
     35 H35       -11.3430    1.4122   65.5499 H       1  ZINC000854500114    0.0800
     36 H36        -7.4597    1.0642   59.7408 H       1  ZINC000854500114    0.1000
     37 H37        -9.2195    1.2302   59.5321 H       1  ZINC000854500114    0.0700
     38 H38       -10.1593    3.4831   58.9271 H       1  ZINC000854500114    0.0800
     39 H39        -9.1082    4.4003   60.0336 H       1  ZINC000854500114    0.0900
     40 H40        -9.8106    5.8169   58.1338 H       1  ZINC000854500114    0.0800
     41 H41        -8.0556    5.5264   58.0798 H       1  ZINC000854500114    0.0700
     42 H42       -10.1533    3.9708   56.4990 H       1  ZINC000854500114    0.0700
     43 H43        -9.0978    5.2432   55.8377 H       1  ZINC000854500114    0.0800
     44 H44        -8.2277    2.9159   55.4146 H       1  ZINC000854500114    0.0800
     45 H45        -7.1030    3.9205   56.3649 H       1  ZINC000854500114    0.0800
     46 H46       -10.3071   -0.0699   55.5379 H       1  ZINC000854500114    0.1700
     47 H47        -6.3145    1.0090   55.0733 H       1  ZINC000854500114    0.4500
@<TRIPOS>BOND
     1     1     2    2
     2     2     3   am
     3     2     9    1
     4     3     4    1
     5     3    26    1
     6     4     8    1
     7     4     5    1
     8     4    27    1
     9     5     6    1
    10     5    28    1
    11     5    29    1
    12     6     7    1
    13     6    30    1
    14     6    31    1
    15     7     8    1
    16     7    32    1
    17     7    33    1
    18     8    34    1
    19     8    35    1
    20     9    10    1
    21    10    11    1
    22    10    36    1
    23    10    37    1
    24    11    12    1
    25    11    17    1
    26    11    13    1
    27    13    14    1
    28    13    38    1
    29    13    39    1
    30    14    15    1
    31    14    40    1
    32    14    41    1
    33    15    16    1
    34    15    42    1
    35    15    43    1
    36    16    17    1
    37    16    44    1
    38    16    45    1
    39    17    18   am
    40    18    19    2
    41    18    20    1
    42    20    25    1
    43    20    21    2
    44    21    22    1
    45    21    46    1
    46    22    23    1
    47    22    24    2
    48    24    25    1
    49    25    47    1
@<TRIPOS>SUBSTRUCTURE
     1 ZINC000854500114        1 TEMP              0 ****  ****    0 ROOT


##########                                Name:    ZINC000564088286
##########                DOCK_Rotatable_Bonds:                   6
##########                         Heavy_Atoms:                  25
##########                    Molecular_Weight:             398.934
##########                DOCK_Rotatable_Bonds:                   6
##########                       Formal_Charge:               -0.05
##########                     HBond_Acceptors:                   8
##########                        HBond_Donors:                   1
##########                         Heavy_Atoms:                  25
##########                          Grid_Score:          -28.350962
##########                     Grid_vdw_energy:          -27.918653
##########                      Grid_es_energy:           -0.432307
##########           Internal_energy_repulsive:            9.697209

@<TRIPOS>MOLECULE
ZINC000564088286
 44 46 1 0 0
SMALL
USER_CHARGES


@<TRIPOS>ATOM
      1 C1        -15.0233   -3.5935   58.2077 C.3     1  ZINC000564088286   -0.1600
      2 C2        -13.7312   -2.9290   57.7281 C.3     1  ZINC000564088286    0.1100
      3 N3        -12.8418   -2.7090   58.8711 N.am    1  ZINC000564088286   -1.1200
      4 S4        -11.1997   -2.7244   58.6575 S.o2    1  ZINC000564088286    2.7000
      5 O5        -10.6299   -2.3351   59.8996 O.2     1  ZINC000564088286   -0.9600
      6 O6        -10.8906   -3.9517   58.0113 O.2     1  ZINC000564088286   -0.9600
      7 C7        -10.8111   -1.4458   57.5093 C.ar    1  ZINC000564088286   -0.6800
      8 C8        -10.3817   -1.7679   56.2353 C.ar    1  ZINC000564088286   -0.0200
      9 C9        -10.0768   -0.7647   55.3344 C.ar    1  ZINC000564088286   -0.1300
     10 C10       -10.2016    0.5606   55.7073 C.ar    1  ZINC000564088286   -0.0100
     11 C11        -9.8687    1.6541   54.7253 C.3     1  ZINC000564088286   -0.1100
     12 C12        -8.3940    1.9571   54.7919 C.2     1  ZINC000564088286    0.5200
     13 O13        -7.6761    1.3166   55.5305 O.2     1  ZINC000564088286   -0.5200
     14 N14        -7.8727    2.9396   54.0307 N.am    1  ZINC000564088286   -0.6200
     15 C15        -6.4364    3.2515   54.0805 C.3     1  ZINC000564088286    0.1200
     16 C16        -5.8206    2.9344   52.7142 C.3     1  ZINC000564088286   -0.0700
     17 C17        -6.7152    3.4908   51.6269 C.2     1  ZINC000564088286   -0.1600
     18 C18        -8.0050    3.8403   51.7895 C.2     1  ZINC000564088286   -0.1200
     19 C19        -8.6087    4.3165   50.6295 C.2     1  ZINC000564088286   -0.1100
     20 C20        -7.8295    4.3609   49.5521 C.2     1  ZINC000564088286   -0.1500
     21 Cl21       -8.3230    4.9124   47.9818 Cl      1  ZINC000564088286   -0.0100
     22 S22        -6.2240    3.7762   49.9621 S.3     1  ZINC000564088286    0.1600
     23 C23        -8.7238    3.7234   53.1244 C.3     1  ZINC000564088286    0.1700
     24 C24       -10.6323    0.8826   56.9808 C.ar    1  ZINC000564088286   -0.1300
     25 C25       -10.9409   -0.1205   57.8804 C.ar    1  ZINC000564088286   -0.0200
     26 H26       -14.7883   -4.5500   58.6746 H       1  ZINC000564088286    0.0600
     27 H27       -15.5169   -2.9467   58.9329 H       1  ZINC000564088286    0.0600
     28 H28       -15.6851   -3.7572   57.3572 H       1  ZINC000564088286    0.0700
     29 H29       -13.2376   -3.5759   57.0028 H       1  ZINC000564088286    0.0800
     30 H30       -13.9662   -1.9725   57.2611 H       1  ZINC000564088286    0.0700
     31 H31       -13.2147   -2.5542   59.7532 H       1  ZINC000564088286    0.4200
     32 H32       -10.2842   -2.8033   55.9440 H       1  ZINC000564088286    0.1400
     33 H33        -9.7407   -1.0164   54.3394 H       1  ZINC000564088286    0.1300
     34 H34       -10.1276    1.3289   53.7178 H       1  ZINC000564088286    0.1100
     35 H35       -10.4355    2.5512   54.9746 H       1  ZINC000564088286    0.1100
     36 H36        -6.2991    4.3087   54.3074 H       1  ZINC000564088286    0.0800
     37 H37        -5.9564    2.6445   54.8481 H       1  ZINC000564088286    0.1100
     38 H38        -4.8338    3.3923   52.6441 H       1  ZINC000564088286    0.0900
     39 H39        -5.7318    1.8545   52.5961 H       1  ZINC000564088286    0.0900
     40 H40        -9.6422    4.6293   50.6053 H       1  ZINC000564088286    0.1500
     41 H41        -9.6808    3.2204   52.9856 H       1  ZINC000564088286    0.1000
     42 H42        -8.8852    4.7160   53.5450 H       1  ZINC000564088286    0.0900
     43 H43       -10.7301    1.9180   57.2719 H       1  ZINC000564088286    0.1300
     44 H44       -11.2773    0.1311   58.8753 H       1  ZINC000564088286    0.1400
@<TRIPOS>BOND
     1     1     2    1
     2     1    26    1
     3     1    27    1
     4     1    28    1
     5     2     3    1
     6     2    29    1
     7     2    30    1
     8     3     4   am
     9     3    31    1
    10     4     5    2
    11     4     6    2
    12     4     7    1
    13     7    25   ar
    14     7     8   ar
    15     8     9   ar
    16     8    32    1
    17     9    10   ar
    18     9    33    1
    19    10    11    1
    20    10    24   ar
    21    11    12    1
    22    11    34    1
    23    11    35    1
    24    12    13    2
    25    12    14   am
    26    14    23    1
    27    14    15    1
    28    15    16    1
    29    15    36    1
    30    15    37    1
    31    16    17    1
    32    16    38    1
    33    16    39    1
    34    17    22    1
    35    17    18    2
    36    18    19    1
    37    18    23    1
    38    19    20    2
    39    19    40    1
    40    20    21    1
    41    20    22    1
    42    23    41    1
    43    23    42    1
    44    24    25   ar
    45    24    43    1
    46    25    44    1
@<TRIPOS>SUBSTRUCTURE
     1 ZINC000564088286        1 TEMP              0 ****  ****    0 ROOT


##########                                Name:    ZINC001176298561
##########                DOCK_Rotatable_Bonds:                   6
##########                         Heavy_Atoms:                  23
##########                    Molecular_Weight:             337.781
##########                DOCK_Rotatable_Bonds:                   6
##########                       Formal_Charge:          -0.0100003
##########                     HBond_Acceptors:                   7
##########                        HBond_Donors:                   2
##########                         Heavy_Atoms:                  23
##########                          Grid_Score:          -28.346752
##########                     Grid_vdw_energy:          -27.137060
##########                      Grid_es_energy:           -1.209693
##########           Internal_energy_repulsive:           12.235705

@<TRIPOS>MOLECULE
ZINC001176298561
 40 41 1 0 0
SMALL
USER_CHARGES


@<TRIPOS>ATOM
      1 C1        -14.5696   -3.0683   56.5168 C.3     1  ZINC001176298561   -0.1700
      2 C2        -14.0622   -3.6145   57.8528 C.3     1  ZINC001176298561    0.1100
      3 N3        -13.1469   -2.6454   58.4604 N.am    1  ZINC001176298561   -0.6100
      4 C4        -13.6784   -1.4551   59.1290 C.3     1  ZINC001176298561    0.0900
      5 C5        -14.9888   -1.8091   59.8351 C.3     1  ZINC001176298561   -0.1800
      6 C6        -11.8158   -2.8489   58.4045 C.2     1  ZINC001176298561    0.5600
      7 O7        -11.3747   -3.8365   57.8499 O.2     1  ZINC001176298561   -0.5300
      8 C8        -10.8918   -1.8708   59.0178 C.ar    1  ZINC001176298561   -0.0600
      9 C9        -10.3138   -0.8691   58.2366 C.ar    1  ZINC001176298561   -0.1900
     10 C10        -9.4500    0.0443   58.8124 C.ar    1  ZINC001176298561    0.1400
     11 F11        -8.8916    1.0137   58.0549 F       1  ZINC001176298561   -0.1300
     12 C12        -9.1564   -0.0314   60.1628 C.ar    1  ZINC001176298561   -0.1800
     13 C13        -9.7281   -1.0261   60.9478 C.ar    1  ZINC001176298561    0.2400
     14 N14        -9.4292   -1.0984   62.3104 N.pl3   1  ZINC001176298561   -0.6700
     15 C15        -9.4905    0.0544   63.1026 C.2     1  ZINC001176298561    0.0400
     16 C16       -10.6492    0.7775   63.1839 C.2     1  ZINC001176298561   -0.0300
     17 C17       -10.6838    1.9285   63.9854 C.2     1  ZINC001176298561   -0.1300
     18 Cl18      -12.1438    2.8605   64.1027 Cl      1  ZINC001176298561   -0.0400
     19 C19        -9.5797    2.3123   64.6673 C.2     1  ZINC001176298561    0.1400
     20 N20        -8.4266    1.5940   64.5873 N.am    1  ZINC001176298561   -0.6000
     21 C21        -8.3589    0.4814   63.8316 C.2     1  ZINC001176298561    0.5100
     22 O22        -7.3176   -0.1527   63.7701 O.2     1  ZINC001176298561   -0.5200
     23 C23       -10.5999   -1.9430   60.3797 C.ar    1  ZINC001176298561   -0.1300
     24 H24       -15.2508   -3.7893   56.0647 H       1  ZINC001176298561    0.0700
     25 H25       -15.0949   -2.1281   56.6846 H       1  ZINC001176298561    0.0600
     26 H26       -13.7249   -2.8984   55.8492 H       1  ZINC001176298561    0.0600
     27 H27       -14.9070   -3.7843   58.5204 H       1  ZINC001176298561    0.0800
     28 H28       -13.5369   -4.5548   57.6850 H       1  ZINC001176298561    0.0900
     29 H29       -12.9558   -1.0970   59.8622 H       1  ZINC001176298561    0.0900
     30 H30       -13.8630   -0.6753   58.3900 H       1  ZINC001176298561    0.0800
     31 H31       -14.8993   -2.7934   60.2948 H       1  ZINC001176298561    0.0700
     32 H32       -15.1989   -1.0663   60.6047 H       1  ZINC001176298561    0.0700
     33 H33       -15.8015   -1.8197   59.1088 H       1  ZINC001176298561    0.0600
     34 H34       -10.5407   -0.8077   57.1825 H       1  ZINC001176298561    0.1500
     35 H35        -8.4809    0.6842   60.6079 H       1  ZINC001176298561    0.1300
     36 H36        -9.1791   -1.9472   62.7077 H       1  ZINC001176298561    0.4200
     37 H37       -11.5270    0.4660   62.6372 H       1  ZINC001176298561    0.1500
     38 H38        -9.6141    3.1994   65.2822 H       1  ZINC001176298561    0.1800
     39 H39        -7.6453    1.8850   65.0832 H       1  ZINC001176298561    0.4300
     40 H40       -11.0448   -2.7163   60.9885 H       1  ZINC001176298561    0.1400
@<TRIPOS>BOND
     1     1     2    1
     2     1    24    1
     3     1    25    1
     4     1    26    1
     5     2     3    1
     6     2    27    1
     7     2    28    1
     8     3     4    1
     9     3     6   am
    10     4     5    1
    11     4    29    1
    12     4    30    1
    13     5    31    1
    14     5    32    1
    15     5    33    1
    16     6     7    2
    17     6     8    1
    18     8    23   ar
    19     8     9   ar
    20     9    10   ar
    21     9    34    1
    22    10    11    1
    23    10    12   ar
    24    12    13   ar
    25    12    35    1
    26    13    14    1
    27    13    23   ar
    28    14    15    1
    29    14    36    1
    30    15    21    1
    31    15    16    2
    32    16    17    1
    33    16    37    1
    34    17    18    1
    35    17    19    2
    36    19    20    1
    37    19    38    1
    38    20    21   am
    39    20    39    1
    40    21    22    2
    41    23    40    1
@<TRIPOS>SUBSTRUCTURE
     1 ZINC001176298561        1 TEMP              0 ****  ****    0 ROOT


##########                                Name:    ZINC000588570917
##########                DOCK_Rotatable_Bonds:                   7
##########                         Heavy_Atoms:                  25
##########                    Molecular_Weight:             366.481
##########                DOCK_Rotatable_Bonds:                   7
##########                       Formal_Charge:          -0.0100006
##########                     HBond_Acceptors:                   7
##########                        HBond_Donors:                   1
##########                         Heavy_Atoms:                  25
##########                          Grid_Score:          -28.337091
##########                     Grid_vdw_energy:          -27.535429
##########                      Grid_es_energy:           -0.801663
##########           Internal_energy_repulsive:           15.521364

@<TRIPOS>MOLECULE
ZINC000588570917
 51 52 1 0 0
SMALL
USER_CHARGES


@<TRIPOS>ATOM
      1 C1         -8.9593    0.5483   66.3127 C.3     1  ZINC000588570917   -0.1300
      2 C2         -9.4793    0.0737   64.9803 C.2     1  ZINC000588570917   -0.0500
      3 C3         -9.8310    0.9575   64.0505 C.2     1  ZINC000588570917   -0.2000
      4 C4         -9.7112    2.4335   64.3300 C.3     1  ZINC000588570917   -0.0900
      5 C5         -9.3137    3.1650   63.0463 C.3     1  ZINC000588570917   -0.1500
      6 C6        -10.3368    0.4942   62.7496 C.2     1  ZINC000588570917    0.5600
      7 O7        -11.3829    0.9341   62.3122 O.2     1  ZINC000588570917   -0.5100
      8 N8         -9.6412   -0.4179   62.0421 N.am    1  ZINC000588570917   -0.6800
      9 C9        -10.1220   -0.8585   60.8052 C.ar    1  ZINC000588570917    0.2100
     10 C10       -11.2791   -1.6241   60.7409 C.ar    1  ZINC000588570917   -0.1700
     11 C11       -11.7516   -2.0571   59.5175 C.ar    1  ZINC000588570917    0.0000
     12 C12       -11.0741   -1.7293   58.3575 C.ar    1  ZINC000588570917   -0.7000
     13 S13       -11.6803   -2.2838   56.7987 S.o2    1  ZINC000588570917    2.6900
     14 O14       -10.8776   -3.3965   56.4288 O.2     1  ZINC000588570917   -0.9500
     15 O15       -13.0945   -2.3516   56.9194 O.2     1  ZINC000588570917   -0.9500
     16 N16       -11.3618   -1.0901   55.6960 N.am    1  ZINC000588570917   -1.0000
     17 C17       -10.5169   -1.3512   54.5199 C.3     1  ZINC000588570917    0.0900
     18 C18       -11.2604   -0.8610   53.2721 C.3     1  ZINC000588570917    0.0700
     19 H19       -12.1371   -1.4859   53.1016 H       1  ZINC000588570917    0.0700
     20 C20       -10.3316   -0.9421   52.0590 C.3     1  ZINC000588570917   -0.1500
     21 O21       -11.6709    0.4938   53.4707 O.3     1  ZINC000588570917   -0.3700
     22 C22       -12.5911    0.6743   54.5499 C.3     1  ZINC000588570917    0.0800
     23 H23       -12.8863    1.7221   54.6051 H       1  ZINC000588570917    0.1200
     24 C24       -13.8290   -0.1939   54.3165 C.3     1  ZINC000588570917   -0.1900
     25 C25       -11.9203    0.2613   55.8601 C.3     1  ZINC000588570917    0.0900
     26 C26        -9.9220   -0.9668   58.4180 C.ar    1  ZINC000588570917    0.0000
     27 C27        -9.4468   -0.5265   59.6377 C.ar    1  ZINC000588570917   -0.1400
     28 H28        -8.7251   -0.3125   66.9389 H       1  ZINC000588570917    0.0600
     29 H29        -8.0585    1.1427   66.1604 H       1  ZINC000588570917    0.0800
     30 H30        -9.7184    1.1582   66.8028 H       1  ZINC000588570917    0.0800
     31 H31        -9.5666   -0.9840   64.7804 H       1  ZINC000588570917    0.1300
     32 H32       -10.6687    2.8152   64.6840 H       1  ZINC000588570917    0.0700
     33 H33        -8.9499    2.5982   65.0926 H       1  ZINC000588570917    0.0800
     34 H34       -10.0749    3.0002   62.2838 H       1  ZINC000588570917    0.0500
     35 H35        -9.2270    4.2325   63.2484 H       1  ZINC000588570917    0.0600
     36 H36        -8.3561    2.7832   62.6922 H       1  ZINC000588570917    0.0600
     37 H37        -8.8069   -0.7688   62.3909 H       1  ZINC000588570917    0.4100
     38 H38       -11.8086   -1.8807   61.6466 H       1  ZINC000588570917    0.1400
     39 H39       -12.6512   -2.6527   59.4668 H       1  ZINC000588570917    0.1400
     40 H40        -9.5733   -0.8148   54.6193 H       1  ZINC000588570917    0.0900
     41 H41       -10.3247   -2.4209   54.4361 H       1  ZINC000588570917    0.1000
     42 H42       -10.0162   -1.9750   51.9112 H       1  ZINC000588570917    0.0700
     43 H43       -10.8608   -0.5935   51.1721 H       1  ZINC000588570917    0.0700
     44 H44        -9.4559   -0.3157   52.2293 H       1  ZINC000588570917    0.0700
     45 H45       -13.5332   -1.2416   54.2632 H       1  ZINC000588570917    0.0600
     46 H46       -14.5300   -0.0557   55.1397 H       1  ZINC000588570917    0.0700
     47 H47       -14.3058    0.0971   53.3806 H       1  ZINC000588570917    0.0700
     48 H48       -12.6556    0.2611   56.6647 H       1  ZINC000588570917    0.1000
     49 H49       -11.1166    0.9585   56.0968 H       1  ZINC000588570917    0.0900
     50 H50        -9.3951   -0.7126   57.5102 H       1  ZINC000588570917    0.1400
     51 H51        -8.5472    0.0693   59.6842 H       1  ZINC000588570917    0.1500
@<TRIPOS>BOND
     1     1     2    1
     2     1    28    1
     3     1    29    1
     4     1    30    1
     5     2     3    2
     6     2    31    1
     7     3     4    1
     8     3     6    1
     9     4     5    1
    10     4    32    1
    11     4    33    1
    12     5    34    1
    13     5    35    1
    14     5    36    1
    15     6     7    2
    16     6     8   am
    17     8     9    1
    18     8    37    1
    19     9    27   ar
    20     9    10   ar
    21    10    11   ar
    22    10    38    1
    23    11    12   ar
    24    11    39    1
    25    12    13    1
    26    12    26   ar
    27    13    14    2
    28    13    15    2
    29    13    16   am
    30    16    25    1
    31    16    17    1
    32    17    18    1
    33    17    40    1
    34    17    41    1
    35    18    19    1
    36    18    20    1
    37    18    21    1
    38    20    42    1
    39    20    43    1
    40    20    44    1
    41    21    22    1
    42    22    23    1
    43    22    24    1
    44    22    25    1
    45    24    45    1
    46    24    46    1
    47    24    47    1
    48    25    48    1
    49    25    49    1
    50    26    27   ar
    51    26    50    1
    52    27    51    1
@<TRIPOS>SUBSTRUCTURE
     1 ZINC000588570917        1 TEMP              0 ****  ****    0 ROOT


##########                                Name:    ZINC001371344729
##########                DOCK_Rotatable_Bonds:                   9
##########                         Heavy_Atoms:                  24
##########                    Molecular_Weight:             332.399
##########                DOCK_Rotatable_Bonds:                   9
##########                       Formal_Charge:          0.00999983
##########                     HBond_Acceptors:                   6
##########                        HBond_Donors:                   1
##########                         Heavy_Atoms:                  24
##########                          Grid_Score:          -28.299875
##########                     Grid_vdw_energy:          -28.604618
##########                      Grid_es_energy:            0.304744
##########           Internal_energy_repulsive:           25.378891

@<TRIPOS>MOLECULE
ZINC001371344729
 48 49 1 0 0
SMALL
USER_CHARGES


@<TRIPOS>ATOM
      1 C1        -13.7736    0.1892   57.1271 C.3     1  ZINC001371344729   -0.1800
      2 C2        -13.5572   -1.3252   57.1410 C.3     1  ZINC001371344729    0.1000
      3 N3        -12.1307   -1.6163   56.9772 N.am    1  ZINC001371344729   -0.6100
      4 C4        -11.5509   -1.4859   55.7675 C.2     1  ZINC001371344729    0.5100
      5 O5        -12.2103   -1.1291   54.8142 O.2     1  ZINC001371344729   -0.5200
      6 C6        -10.0831   -1.7836   55.5994 C.3     1  ZINC001371344729   -0.0600
      7 C7         -9.5631   -1.0722   54.3769 C.2     1  ZINC001371344729   -0.0100
      8 C8         -9.2143    0.2253   54.3105 C.2     1  ZINC001371344729   -0.1600
      9 C9         -9.2693    1.2286   55.4337 C.3     1  ZINC001371344729   -0.0800
     10 C10        -8.7920    0.4685   52.9834 C.2     1  ZINC001371344729   -0.2100
     11 C11        -8.8990   -0.6971   52.3206 C.2     1  ZINC001371344729   -0.0300
     12 O12        -9.3701   -1.6259   53.1687 O.3     1  ZINC001371344729   -0.1700
     13 C13       -11.3345   -2.0490   58.1283 C.3     1  ZINC001371344729    0.1200
     14 H14       -10.3579   -1.5661   58.0966 H       1  ZINC001371344729    0.1100
     15 C15       -11.1544   -3.5677   58.0819 C.3     1  ZINC001371344729   -0.1600
     16 C16       -12.0540   -1.6600   59.4213 C.3     1  ZINC001371344729    0.1100
     17 N17       -11.0820   -1.5733   60.5140 N.am    1  ZINC001371344729   -0.7200
     18 C18       -10.6940   -0.3685   60.9768 C.2     1  ZINC001371344729    0.5900
     19 O19       -11.1518    0.6468   60.4881 O.2     1  ZINC001371344729   -0.5300
     20 C20        -9.7149   -0.2813   62.0748 C.2     1  ZINC001371344729   -0.2300
     21 C21        -8.3694   -0.4931   61.9987 C.2     1  ZINC001371344729    0.0200
     22 O22        -7.8446   -0.3128   63.2146 O.3     1  ZINC001371344729   -0.1700
     23 C23        -8.7972    0.0050   64.1051 C.2     1  ZINC001371344729   -0.0100
     24 C24        -8.5689    0.2733   65.5704 C.3     1  ZINC001371344729   -0.0800
     25 C25        -9.9850    0.0459   63.4825 C.2     1  ZINC001371344729   -0.1600
     26 H26       -13.4262    0.5971   56.1778 H       1  ZINC001371344729    0.0700
     27 H27       -14.8349    0.4058   57.2489 H       1  ZINC001371344729    0.0700
     28 H28       -13.2138    0.6439   57.9444 H       1  ZINC001371344729    0.0600
     29 H29       -14.1169   -1.7798   56.3236 H       1  ZINC001371344729    0.0900
     30 H30       -13.9045   -1.7331   58.0903 H       1  ZINC001371344729    0.0800
     31 H31        -9.9413   -2.8579   55.4825 H       1  ZINC001371344729    0.1100
     32 H32        -9.5395   -1.4390   56.4791 H       1  ZINC001371344729    0.1200
     33 H33        -8.3206    1.2255   55.9704 H       1  ZINC001371344729    0.0700
     34 H34        -9.4519    2.2222   55.0245 H       1  ZINC001371344729    0.0700
     35 H35       -10.0750    0.9637   56.1184 H       1  ZINC001371344729    0.0600
     36 H36        -8.4470    1.4090   52.5799 H       1  ZINC001371344729    0.1500
     37 H37        -8.6531   -0.8576   51.2812 H       1  ZINC001371344729    0.2000
     38 H38       -10.6417   -3.8447   57.1606 H       1  ZINC001371344729    0.0700
     39 H39       -10.5619   -3.8896   58.9383 H       1  ZINC001371344729    0.0700
     40 H40       -12.1311   -4.0505   58.1135 H       1  ZINC001371344729    0.0700
     41 H41       -12.5401   -0.6932   59.2900 H       1  ZINC001371344729    0.0800
     42 H42       -12.8038   -2.4140   59.6608 H       1  ZINC001371344729    0.0800
     43 H43       -10.7178   -2.3831   60.9045 H       1  ZINC001371344729    0.4000
     44 H44        -7.8212   -0.7592   61.1070 H       1  ZINC001371344729    0.2100
     45 H45        -8.6554   -0.6592   66.1283 H       1  ZINC001371344729    0.0800
     46 H46        -7.5721    0.6906   65.7124 H       1  ZINC001371344729    0.0800
     47 H47        -9.3143    0.9825   65.9303 H       1  ZINC001371344729    0.0900
     48 H48       -10.9437    0.2730   63.9250 H       1  ZINC001371344729    0.1600
@<TRIPOS>BOND
     1     1     2    1
     2     1    26    1
     3     1    27    1
     4     1    28    1
     5     2     3    1
     6     2    29    1
     7     2    30    1
     8     3     4   am
     9     3    13    1
    10     4     5    2
    11     4     6    1
    12     6     7    1
    13     6    31    1
    14     6    32    1
    15     7    12    1
    16     7     8    2
    17     8     9    1
    18     8    10    1
    19     9    33    1
    20     9    34    1
    21     9    35    1
    22    10    11    2
    23    10    36    1
    24    11    12    1
    25    11    37    1
    26    13    14    1
    27    13    15    1
    28    13    16    1
    29    15    38    1
    30    15    39    1
    31    15    40    1
    32    16    17    1
    33    16    41    1
    34    16    42    1
    35    17    18   am
    36    17    43    1
    37    18    19    2
    38    18    20    1
    39    20    25    1
    40    20    21    2
    41    21    22    1
    42    21    44    1
    43    22    23    1
    44    23    24    1
    45    23    25    2
    46    24    45    1
    47    24    46    1
    48    24    47    1
    49    25    48    1
@<TRIPOS>SUBSTRUCTURE
     1 ZINC001371344729        1 TEMP              0 ****  ****    0 ROOT


##########                                Name:    ZINC000817655807
##########                DOCK_Rotatable_Bonds:                   3
##########                         Heavy_Atoms:                  24
##########                    Molecular_Weight:             352.774
##########                DOCK_Rotatable_Bonds:                   3
##########                       Formal_Charge:         3.35276e-07
##########                     HBond_Acceptors:                   8
##########                        HBond_Donors:                   0
##########                         Heavy_Atoms:                  24
##########                          Grid_Score:          -28.293644
##########                     Grid_vdw_energy:          -28.071449
##########                      Grid_es_energy:           -0.222195
##########           Internal_energy_repulsive:            2.043241

@<TRIPOS>MOLECULE
ZINC000817655807
 41 44 1 0 0
SMALL
USER_CHARGES


@<TRIPOS>ATOM
      1 C1        -13.7069   -0.1225   52.6483 C.3     1  ZINC000817655807    0.1100
      2 N2        -12.4004   -0.2957   53.2883 N.am    1  ZINC000817655807   -0.6400
      3 C3        -12.1201   -0.1257   54.7253 C.3     1  ZINC000817655807    0.1000
      4 C4        -10.6220   -0.4257   54.8294 C.3     1  ZINC000817655807    0.0500
      5 C5         -9.7873    0.6097   55.5833 C.3     1  ZINC000817655807    0.1200
      6 N6         -9.9861   -0.2525   56.7671 N.am    1  ZINC000817655807   -0.6500
      7 C7         -9.9643   -0.0456   58.0987 C.2     1  ZINC000817655807    0.5500
      8 O8         -9.7414    1.0632   58.5365 O.2     1  ZINC000817655807   -0.5100
      9 C9        -10.2168   -1.1921   59.0436 C.3     1  ZINC000817655807   -0.0900
     10 C10       -10.1450   -0.6967   60.4650 C.ar    1  ZINC000817655807   -0.0600
     11 C11       -11.2614   -0.1381   61.0580 C.ar    1  ZINC000817655807   -0.0900
     12 C12       -11.1986    0.3197   62.3619 C.ar    1  ZINC000817655807   -0.0300
     13 Cl13      -12.6026    1.0213   63.1035 Cl      1  ZINC000817655807   -0.0500
     14 C14       -10.0142    0.2181   63.0776 C.ar    1  ZINC000817655807    0.0600
     15 O15        -9.9648    0.6800   64.3572 O.3     1  ZINC000817655807   -0.2900
     16 C16        -8.8731    0.2246   65.1641 C.3     1  ZINC000817655807    0.0200
     17 C17        -7.5835    0.3465   64.3411 C.3     1  ZINC000817655807    0.0200
     18 O18        -7.7228   -0.4612   63.1672 O.3     1  ZINC000817655807   -0.3000
     19 C19        -8.8932   -0.3473   62.4817 C.ar    1  ZINC000817655807    0.0600
     20 C20        -8.9643   -0.8073   61.1752 C.ar    1  ZINC000817655807   -0.0900
     21 C21       -10.2190   -1.4319   55.9076 C.3     1  ZINC000817655807    0.1100
     22 O22       -10.2029   -0.7291   53.4788 O.3     1  ZINC000817655807   -0.3000
     23 C23       -11.2644   -0.6406   52.6632 C.2     1  ZINC000817655807    0.6400
     24 O24       -11.2012   -0.8465   51.4673 O.2     1  ZINC000817655807   -0.5100
     25 H25       -13.6166   -0.3172   51.5797 H       1  ZINC000817655807    0.0900
     26 H26       -14.4210   -0.8203   53.0857 H       1  ZINC000817655807    0.0700
     27 H27       -14.0550    0.8987   52.8036 H       1  ZINC000817655807    0.0700
     28 H28       -12.3303    0.8967   55.0398 H       1  ZINC000817655807    0.1000
     29 H29       -12.6967   -0.8371   55.3164 H       1  ZINC000817655807    0.1000
     30 H30        -8.7512    0.6674   55.2497 H       1  ZINC000817655807    0.1100
     31 H31       -10.2652    1.5860   55.6645 H       1  ZINC000817655807    0.1000
     32 H32       -11.2059   -1.6086   58.8534 H       1  ZINC000817655807    0.1100
     33 H33        -9.4620   -1.9632   58.8890 H       1  ZINC000817655807    0.1100
     34 H34       -12.1842   -0.0585   60.5026 H       1  ZINC000817655807    0.1400
     35 H35        -8.7968    0.8401   66.0603 H       1  ZINC000817655807    0.1300
     36 H36        -9.0329   -0.8165   65.4449 H       1  ZINC000817655807    0.0800
     37 H37        -7.4268    1.3866   64.0551 H       1  ZINC000817655807    0.0800
     38 H38        -6.7367   -0.0049   64.9306 H       1  ZINC000817655807    0.1300
     39 H39        -8.0949   -1.2487   60.7109 H       1  ZINC000817655807    0.1400
     40 H40       -11.0378   -2.0675   56.2447 H       1  ZINC000817655807    0.1000
     41 H41        -9.3133   -1.9907   55.6719 H       1  ZINC000817655807    0.1100
@<TRIPOS>BOND
     1     1     2    1
     2     1    25    1
     3     1    26    1
     4     1    27    1
     5     2    23   am
     6     2     3    1
     7     3     4    1
     8     3    28    1
     9     3    29    1
    10     4    21    1
    11     4     5    1
    12     4    22    1
    13     5     6    1
    14     5    30    1
    15     5    31    1
    16     6     7   am
    17     6    21    1
    18     7     8    2
    19     7     9    1
    20     9    10    1
    21     9    32    1
    22     9    33    1
    23    10    20   ar
    24    10    11   ar
    25    11    12   ar
    26    11    34    1
    27    12    13    1
    28    12    14   ar
    29    14    19   ar
    30    14    15    1
    31    15    16    1
    32    16    17    1
    33    16    35    1
    34    16    36    1
    35    17    18    1
    36    17    37    1
    37    17    38    1
    38    18    19    1
    39    19    20   ar
    40    20    39    1
    41    21    40    1
    42    21    41    1
    43    22    23    1
    44    23    24    2
@<TRIPOS>SUBSTRUCTURE
     1 ZINC000817655807        1 TEMP              0 ****  ****    0 ROOT


##########                                Name:    ZINC000822206030
##########                DOCK_Rotatable_Bonds:                   7
##########                         Heavy_Atoms:                  29
##########                    Molecular_Weight:             391.448
##########                DOCK_Rotatable_Bonds:                   7
##########                       Formal_Charge:         -0.00999995
##########                     HBond_Acceptors:                   7
##########                        HBond_Donors:                   1
##########                         Heavy_Atoms:                  29
##########                          Grid_Score:          -28.292555
##########                     Grid_vdw_energy:          -26.005703
##########                      Grid_es_energy:           -2.286851
##########           Internal_energy_repulsive:           20.582626

@<TRIPOS>MOLECULE
ZINC000822206030
 51 55 1 0 0
SMALL
USER_CHARGES


@<TRIPOS>ATOM
      1 C1        -12.2836   -0.9800   54.9767 C.3     1  ZINC000822206030   -0.1300
      2 C2        -10.8558   -0.5218   55.1279 C.ar    1  ZINC000822206030   -0.0400
      3 C3         -9.9752   -0.6449   54.0714 C.ar    1  ZINC000822206030   -0.1500
      4 C4         -8.6629   -0.2245   54.2101 C.ar    1  ZINC000822206030    0.1100
      5 F5         -7.8027   -0.3460   53.1755 F       1  ZINC000822206030   -0.1400
      6 C6         -8.2314    0.3207   55.4075 C.ar    1  ZINC000822206030   -0.1500
      7 C7         -9.1092    0.4454   56.4667 C.ar    1  ZINC000822206030   -0.0800
      8 C8        -10.4265    0.0295   56.3280 C.ar    1  ZINC000822206030    0.1100
      9 N9        -11.3181    0.1555   57.4004 N.am    1  ZINC000822206030   -0.5600
     10 C10       -11.5735   -0.9887   58.2790 C.3     1  ZINC000822206030    0.1500
     11 C11       -10.8467   -0.7917   59.5843 C.ar    1  ZINC000822206030   -0.0900
     12 C12        -9.4678   -0.8919   59.6272 C.ar    1  ZINC000822206030   -0.1000
     13 C13        -8.7971   -0.7120   60.8199 C.ar    1  ZINC000822206030   -0.0800
     14 C14        -9.5112   -0.4290   61.9820 C.ar    1  ZINC000822206030   -0.0100
     15 C15        -8.7952   -0.2340   63.2678 C.2     1  ZINC000822206030    0.2200
     16 N16        -7.4925   -0.1212   63.4342 N.2     1  ZINC000822206030   -0.2900
     17 N17        -7.2679    0.0352   64.6936 N.pl3   1  ZINC000822206030   -0.2300
     18 N18        -8.3868    0.0251   65.3301 N.2     1  ZINC000822206030   -0.0500
     19 N19        -9.3481   -0.1327   64.4847 N.2     1  ZINC000822206030   -0.2700
     20 C20       -10.8998   -0.3292   61.9332 C.ar    1  ZINC000822206030   -0.0800
     21 C21       -11.5603   -0.5058   60.7341 C.ar    1  ZINC000822206030   -0.0900
     22 C22       -11.9414    1.3293   57.6242 C.2     1  ZINC000822206030    0.5500
     23 O23       -12.7149    1.4380   58.5521 O.2     1  ZINC000822206030   -0.5000
     24 C24       -11.6773    2.5068   56.7215 C.3     1  ZINC000822206030   -0.1900
     25 H25       -10.7040    2.5140   56.2309 H       1  ZINC000822206030    0.1200
     26 C26       -12.2738    3.8559   57.1275 C.3     1  ZINC000822206030   -0.1400
     27 C27       -12.8638    3.0824   55.9458 C.3     1  ZINC000822206030   -0.0900
     28 H28       -12.6711    3.4685   54.9448 H       1  ZINC000822206030    0.1100
     29 C29       -14.2281    2.4192   56.1458 C.3     1  ZINC000822206030   -0.1100
     30 C30       -15.4377    3.0760   55.4777 C.3     1  ZINC000822206030   -0.2000
     31 C31       -14.8795    1.7620   54.9274 C.3     1  ZINC000822206030   -0.1200
     32 H32       -12.8923   -0.1556   54.6054 H       1  ZINC000822206030    0.0900
     33 H33       -12.3262   -1.8096   54.2709 H       1  ZINC000822206030    0.0700
     34 H34       -12.6649   -1.3062   55.9443 H       1  ZINC000822206030    0.0700
     35 H35       -10.3099   -1.0694   53.1365 H       1  ZINC000822206030    0.1400
     36 H36        -7.2077    0.6483   55.5135 H       1  ZINC000822206030    0.1400
     37 H37        -8.7722    0.8704   57.4006 H       1  ZINC000822206030    0.1400
     38 H38       -12.6440   -1.0699   58.4678 H       1  ZINC000822206030    0.1000
     39 H39       -11.2188   -1.9011   57.7996 H       1  ZINC000822206030    0.0900
     40 H40        -8.9150   -1.1117   58.7257 H       1  ZINC000822206030    0.1300
     41 H41        -7.7205   -0.7907   60.8524 H       1  ZINC000822206030    0.1400
     42 H42        -6.3931    0.1433   65.0983 H       1  ZINC000822206030    0.4800
     43 H43       -11.4584   -0.1103   62.8313 H       1  ZINC000822206030    0.1300
     44 H44       -12.6368   -0.4285   60.6951 H       1  ZINC000822206030    0.1400
     45 H45       -12.8572    3.8918   58.0474 H       1  ZINC000822206030    0.1000
     46 H46       -11.6931    4.7508   56.9036 H       1  ZINC000822206030    0.1000
     47 H47       -14.3832    1.9466   57.1157 H       1  ZINC000822206030    0.1000
     48 H48       -16.3890    3.0357   56.0082 H       1  ZINC000822206030    0.0900
     49 H49       -15.2616    3.9805   54.8957 H       1  ZINC000822206030    0.0900
     50 H50       -14.3364    1.8022   53.9833 H       1  ZINC000822206030    0.0800
     51 H51       -15.4638    0.8574   55.0958 H       1  ZINC000822206030    0.0900
@<TRIPOS>BOND
     1     1     2    1
     2     1    32    1
     3     1    33    1
     4     1    34    1
     5     2     8   ar
     6     2     3   ar
     7     3     4   ar
     8     3    35    1
     9     4     5    1
    10     4     6   ar
    11     6     7   ar
    12     6    36    1
    13     7     8   ar
    14     7    37    1
    15     8     9    1
    16     9    10    1
    17     9    22   am
    18    10    11    1
    19    10    38    1
    20    10    39    1
    21    11    21   ar
    22    11    12   ar
    23    12    13   ar
    24    12    40    1
    25    13    14   ar
    26    13    41    1
    27    14    15    1
    28    14    20   ar
    29    15    19    1
    30    15    16    2
    31    16    17    1
    32    17    18    1
    33    17    42    1
    34    18    19    2
    35    20    21   ar
    36    20    43    1
    37    21    44    1
    38    22    23    2
    39    22    24    1
    40    24    25    1
    41    24    27    1
    42    24    26    1
    43    26    27    1
    44    26    45    1
    45    26    46    1
    46    27    28    1
    47    27    29    1
    48    29    31    1
    49    29    30    1
    50    29    47    1
    51    30    31    1
    52    30    48    1
    53    30    49    1
    54    31    50    1
    55    31    51    1
@<TRIPOS>SUBSTRUCTURE
     1 ZINC000822206030        1 TEMP              0 ****  ****    0 ROOT


##########                                Name:    ZINC000279593480
##########                DOCK_Rotatable_Bonds:                   9
##########                         Heavy_Atoms:                  23
##########                    Molecular_Weight:              340.85
##########                DOCK_Rotatable_Bonds:                   9
##########                       Formal_Charge:          -0.0500002
##########                     HBond_Acceptors:                   6
##########                        HBond_Donors:                   3
##########                         Heavy_Atoms:                  23
##########                          Grid_Score:          -28.285225
##########                     Grid_vdw_energy:          -28.545805
##########                      Grid_es_energy:            0.260579
##########           Internal_energy_repulsive:           12.788270

@<TRIPOS>MOLECULE
ZINC000279593480
 48 49 1 0 0
SMALL
USER_CHARGES


@<TRIPOS>ATOM
      1 C1        -14.3531   -4.6417   56.9370 C.3     1  ZINC000279593480   -0.1400
      2 C2        -14.7556   -3.6688   58.0472 C.3     1  ZINC000279593480   -0.1400
      3 C3        -13.5819   -2.7386   58.3604 C.3     1  ZINC000279593480    0.1700
      4 H4        -12.7241   -3.3307   58.6794 H       1  ZINC000279593480    0.0900
      5 C5        -13.9802   -1.7739   59.4791 C.3     1  ZINC000279593480   -0.0900
      6 C6        -12.7517   -1.0717   59.9979 C.ar    1  ZINC000279593480   -0.0800
      7 C7        -12.5765    0.2791   59.7615 C.ar    1  ZINC000279593480   -0.1000
      8 C8        -11.4501    0.9236   60.2371 C.ar    1  ZINC000279593480   -0.1100
      9 C9        -10.4980    0.2168   60.9498 C.ar    1  ZINC000279593480   -0.0400
     10 Cl10       -9.0832    1.0258   61.5479 Cl      1  ZINC000279593480   -0.0700
     11 C11       -10.6740   -1.1350   61.1860 C.ar    1  ZINC000279593480   -0.1100
     12 C12       -11.8035   -1.7773   60.7147 C.ar    1  ZINC000279593480   -0.1000
     13 N13       -13.2295   -1.9759   57.1602 N.am    1  ZINC000279593480   -0.7400
     14 C14       -11.9737   -2.0272   56.6737 C.2     1  ZINC000279593480    0.7100
     15 O15       -11.1336   -2.7078   57.2300 O.2     1  ZINC000279593480   -0.5800
     16 N16       -11.6490   -1.3243   55.5705 N.am    1  ZINC000279593480   -0.7500
     17 C17       -10.2844   -1.3814   55.0407 C.3     1  ZINC000279593480    0.1200
     18 C18       -10.0656   -0.2201   54.0688 C.3     1  ZINC000279593480    0.0900
     19 O19       -11.2284    0.6086   54.0110 O.3     1  ZINC000279593480   -0.5400
     20 C20        -8.8279    0.6067   54.4833 C.3     1  ZINC000279593480   -0.1900
     21 C21        -7.8696    0.4775   53.2785 C.3     1  ZINC000279593480    0.0500
     22 O22        -8.7272    0.1789   52.1553 O.3     1  ZINC000279593480   -0.3600
     23 C23        -9.7088   -0.7511   52.6627 C.3     1  ZINC000279593480    0.0900
     24 H24        -9.2830   -1.7521   52.7319 H       1  ZINC000279593480    0.0800
     25 C25       -10.9474   -0.7610   51.7645 C.3     1  ZINC000279593480   -0.1400
     26 H26       -13.4981   -5.2332   57.2646 H       1  ZINC000279593480    0.0600
     27 H27       -15.1893   -5.3043   56.7139 H       1  ZINC000279593480    0.0400
     28 H28       -14.0852   -4.0807   56.0417 H       1  ZINC000279593480    0.0600
     29 H29       -15.6105   -3.0772   57.7196 H       1  ZINC000279593480    0.0600
     30 H30       -15.0235   -4.2298   58.9425 H       1  ZINC000279593480    0.0700
     31 H31       -14.6829   -1.0370   59.0903 H       1  ZINC000279593480    0.0800
     32 H32       -14.4496   -2.3314   60.2896 H       1  ZINC000279593480    0.0900
     33 H33       -13.3197    0.8307   59.2050 H       1  ZINC000279593480    0.1300
     34 H34       -11.3131    1.9789   60.0522 H       1  ZINC000279593480    0.1300
     35 H35        -9.9309   -1.6875   61.7419 H       1  ZINC000279593480    0.1300
     36 H36       -11.9412   -2.8325   60.8993 H       1  ZINC000279593480    0.1300
     37 H37       -13.9000   -1.4339   56.7158 H       1  ZINC000279593480    0.3900
     38 H38       -12.3190   -0.7804   55.1275 H       1  ZINC000279593480    0.3900
     39 H39        -9.5722   -1.3067   55.8624 H       1  ZINC000279593480    0.0800
     40 H40       -10.1372   -2.3261   54.5171 H       1  ZINC000279593480    0.0800
     41 H41       -11.1721    1.3201   53.3585 H       1  ZINC000279593480    0.3700
     42 H42        -9.1014    1.6495   54.6436 H       1  ZINC000279593480    0.0900
     43 H43        -8.3719    0.1881   55.3805 H       1  ZINC000279593480    0.0900
     44 H44        -7.3400    1.4156   53.1126 H       1  ZINC000279593480    0.1000
     45 H45        -7.1618   -0.3351   53.4420 H       1  ZINC000279593480    0.0600
     46 H46       -10.6668   -1.0853   50.7624 H       1  ZINC000279593480    0.0600
     47 H47       -11.6881   -1.4475   52.1745 H       1  ZINC000279593480    0.0700
     48 H48       -11.3695    0.2428   51.7165 H       1  ZINC000279593480    0.0700
@<TRIPOS>BOND
     1     1     2    1
     2     1    26    1
     3     1    27    1
     4     1    28    1
     5     2     3    1
     6     2    29    1
     7     2    30    1
     8     3     4    1
     9     3     5    1
    10     3    13    1
    11     5     6    1
    12     5    31    1
    13     5    32    1
    14     6    12   ar
    15     6     7   ar
    16     7     8   ar
    17     7    33    1
    18     8     9   ar
    19     8    34    1
    20     9    10    1
    21     9    11   ar
    22    11    12   ar
    23    11    35    1
    24    12    36    1
    25    13    14   am
    26    13    37    1
    27    14    15    2
    28    14    16   am
    29    16    17    1
    30    16    38    1
    31    17    18    1
    32    17    39    1
    33    17    40    1
    34    18    23    1
    35    18    19    1
    36    18    20    1
    37    19    41    1
    38    20    21    1
    39    20    42    1
    40    20    43    1
    41    21    22    1
    42    21    44    1
    43    21    45    1
    44    22    23    1
    45    23    24    1
    46    23    25    1
    47    25    46    1
    48    25    47    1
    49    25    48    1
@<TRIPOS>SUBSTRUCTURE
     1 ZINC000279593480        1 TEMP              0 ****  ****    0 ROOT


##########                                Name:    ZINC000477589488
##########                DOCK_Rotatable_Bonds:                   6
##########                         Heavy_Atoms:                  32
##########                    Molecular_Weight:             423.517
##########                DOCK_Rotatable_Bonds:                   6
##########                       Formal_Charge:        -8.19564e-07
##########                     HBond_Acceptors:                   6
##########                        HBond_Donors:                   1
##########                         Heavy_Atoms:                  32
##########                          Grid_Score:          -28.283197
##########                     Grid_vdw_energy:          -27.981602
##########                      Grid_es_energy:           -0.301596
##########           Internal_energy_repulsive:           20.024405

@<TRIPOS>MOLECULE
ZINC000477589488
 57 61 1 0 0
SMALL
USER_CHARGES


@<TRIPOS>ATOM
      1 O1        -11.2261   -1.2530   53.7357 O.2     1  ZINC000477589488   -0.5800
      2 C2        -10.5576   -0.5492   54.4681 C.2     1  ZINC000477589488    0.7100
      3 N3        -11.0412   -0.1754   55.6692 N.am    1  ZINC000477589488   -0.7400
      4 C4        -12.3749   -0.6119   56.0899 C.3     1  ZINC000477589488    0.2500
      5 H5        -12.6723   -1.4840   55.5075 H       1  ZINC000477589488    0.1100
      6 C6        -13.3630    0.5034   55.8646 C.ar    1  ZINC000477589488   -0.0900
      7 C7        -13.0729    1.7824   56.3017 C.ar    1  ZINC000477589488   -0.1000
      8 C8        -13.9792    2.8056   56.0950 C.ar    1  ZINC000477589488   -0.1200
      9 C9        -15.1753    2.5498   55.4507 C.ar    1  ZINC000477589488   -0.1200
     10 C10       -15.4648    1.2711   55.0128 C.ar    1  ZINC000477589488   -0.1200
     11 C11       -14.5566    0.2488   55.2157 C.ar    1  ZINC000477589488   -0.1000
     12 C12       -12.3476   -0.9708   57.5533 C.ar    1  ZINC000477589488   -0.0700
     13 C13       -13.2507   -1.9176   58.0652 C.ar    1  ZINC000477589488   -0.0400
     14 C14       -14.1934   -2.5496   57.2365 C.ar    1  ZINC000477589488   -0.1100
     15 C15       -15.0522   -3.4621   57.7673 C.ar    1  ZINC000477589488   -0.1100
     16 C16       -15.0125   -3.7808   59.1237 C.ar    1  ZINC000477589488   -0.1100
     17 C17       -14.1136   -3.1888   59.9565 C.ar    1  ZINC000477589488   -0.1100
     18 C18       -13.2098   -2.2420   59.4445 C.ar    1  ZINC000477589488   -0.0500
     19 C19       -12.2673   -1.6103   60.2731 C.ar    1  ZINC000477589488   -0.1000
     20 C20       -11.4074   -0.6986   59.7418 C.ar    1  ZINC000477589488   -0.1100
     21 C21       -11.4442   -0.3833   58.3851 C.ar    1  ZINC000477589488   -0.1100
     22 N22        -9.3307   -0.1476   54.0809 N.am    1  ZINC000477589488   -0.6300
     23 C23        -8.7862   -0.5392   52.7720 C.3     1  ZINC000477589488    0.1300
     24 C24        -8.2922    0.7209   52.0535 C.3     1  ZINC000477589488    0.0500
     25 N25        -7.3554    1.4423   52.9253 N.3     1  ZINC000477589488   -0.4700
     26 C26        -6.7611    2.5022   52.2493 C.ar    1  ZINC000477589488    0.2500
     27 C27        -5.7062    3.2023   52.8334 C.ar    1  ZINC000477589488   -0.1300
     28 C28        -5.1484    4.2505   52.1184 C.ar    1  ZINC000477589488   -0.0900
     29 C29        -5.6734    4.5387   50.8667 C.ar    1  ZINC000477589488    0.0200
     30 N30        -6.6734    3.8238   50.3905 N.ar    1  ZINC000477589488   -0.2200
     31 N31        -7.1912    2.8484   51.0445 N.ar    1  ZINC000477589488   -0.2800
     32 C32        -8.0179    1.9054   54.1519 C.3     1  ZINC000477589488    0.0400
     33 C33        -8.5032    0.6988   54.9538 C.3     1  ZINC000477589488    0.1200
     34 H34       -10.5063    0.3827   56.2551 H       1  ZINC000477589488    0.3900
     35 H35       -12.1386    1.9822   56.8050 H       1  ZINC000477589488    0.1100
     36 H36       -13.7530    3.8046   56.4372 H       1  ZINC000477589488    0.1200
     37 H37       -15.8836    3.3491   55.2899 H       1  ZINC000477589488    0.1200
     38 H38       -16.3994    1.0712   54.5098 H       1  ZINC000477589488    0.1200
     39 H39       -14.7828   -0.7503   54.8735 H       1  ZINC000477589488    0.1200
     40 H40       -14.2364   -2.3123   56.1837 H       1  ZINC000477589488    0.1300
     41 H41       -15.7757   -3.9463   57.1282 H       1  ZINC000477589488    0.1300
     42 H42       -15.7056   -4.5082   59.5196 H       1  ZINC000477589488    0.1300
     43 H43       -14.0950   -3.4452   61.0055 H       1  ZINC000477589488    0.1300
     44 H44       -12.2255   -1.8466   61.3261 H       1  ZINC000477589488    0.1300
     45 H45       -10.6841   -0.2142   60.3810 H       1  ZINC000477589488    0.1300
     46 H46       -10.7504    0.3434   57.9888 H       1  ZINC000477589488    0.1200
     47 H47        -7.9549   -1.2300   52.9130 H       1  ZINC000477589488    0.0800
     48 H48        -9.5662   -1.0168   52.1790 H       1  ZINC000477589488    0.1100
     49 H49        -7.7860    0.4385   51.1304 H       1  ZINC000477589488    0.1000
     50 H50        -9.1414    1.3636   51.8212 H       1  ZINC000477589488    0.0600
     51 H51        -5.3356    2.9363   53.8124 H       1  ZINC000477589488    0.1500
     52 H52        -4.3296    4.8264   52.5238 H       1  ZINC000477589488    0.1500
     53 H53        -5.2630    5.3490   50.2826 H       1  ZINC000477589488    0.1700
     54 H54        -7.3128    2.4820   54.7506 H       1  ZINC000477589488    0.1000
     55 H55        -8.8709    2.5316   53.8904 H       1  ZINC000477589488    0.0600
     56 H56        -9.0940    1.0383   55.8045 H       1  ZINC000477589488    0.0800
     57 H57        -7.6462    0.1243   55.3055 H       1  ZINC000477589488    0.0900
@<TRIPOS>BOND
     1     1     2    2
     2     2     3   am
     3     2    22   am
     4     3     4    1
     5     3    34    1
     6     4     5    1
     7     4     6    1
     8     4    12    1
     9     6    11   ar
    10     6     7   ar
    11     7     8   ar
    12     7    35    1
    13     8     9   ar
    14     8    36    1
    15     9    10   ar
    16     9    37    1
    17    10    11   ar
    18    10    38    1
    19    11    39    1
    20    12    21   ar
    21    12    13   ar
    22    13    18   ar
    23    13    14   ar
    24    14    15   ar
    25    14    40    1
    26    15    16   ar
    27    15    41    1
    28    16    17   ar
    29    16    42    1
    30    17    18   ar
    31    17    43    1
    32    18    19   ar
    33    19    20   ar
    34    19    44    1
    35    20    21   ar
    36    20    45    1
    37    21    46    1
    38    22    33    1
    39    22    23    1
    40    23    24    1
    41    23    47    1
    42    23    48    1
    43    24    25    1
    44    24    49    1
    45    24    50    1
    46    25    26    1
    47    25    32    1
    48    26    31   ar
    49    26    27   ar
    50    27    28   ar
    51    27    51    1
    52    28    29   ar
    53    28    52    1
    54    29    30   ar
    55    29    53    1
    56    30    31   ar
    57    32    33    1
    58    32    54    1
    59    32    55    1
    60    33    56    1
    61    33    57    1
@<TRIPOS>SUBSTRUCTURE
     1 ZINC000477589488        1 TEMP              0 ****  ****    0 ROOT


##########                                Name:    ZINC000464867530
##########                DOCK_Rotatable_Bonds:                   8
##########                         Heavy_Atoms:                  30
##########                    Molecular_Weight:              422.49
##########                DOCK_Rotatable_Bonds:                   8
##########                       Formal_Charge:         -0.00999994
##########                     HBond_Acceptors:                   7
##########                        HBond_Donors:                   0
##########                         Heavy_Atoms:                  30
##########                          Grid_Score:          -28.278856
##########                     Grid_vdw_energy:          -27.128868
##########                      Grid_es_energy:           -1.149989
##########           Internal_energy_repulsive:           31.102623

@<TRIPOS>MOLECULE
ZINC000464867530
 59 62 1 0 0
SMALL
USER_CHARGES


@<TRIPOS>ATOM
      1 C1        -12.7964    3.5807   50.0989 C.3     1  ZINC000464867530   -0.1500
      2 C2        -11.4012    3.7670   49.4991 C.3     1  ZINC000464867530   -0.1400
      3 C3        -10.3681    3.8432   50.6251 C.3     1  ZINC000464867530    0.0900
      4 N4         -9.0196    3.8004   50.0542 N.am    1  ZINC000464867530   -0.6100
      5 C5         -8.7603    4.3988   48.7423 C.3     1  ZINC000464867530    0.0700
      6 C6         -8.4671    5.8909   48.9113 C.3     1  ZINC000464867530    0.4300
      7 F7         -8.2582    6.4703   47.6551 F       1  ZINC000464867530   -0.1700
      8 F8         -9.5538    6.5118   49.5364 F       1  ZINC000464867530   -0.1800
      9 F9         -7.3211    6.0549   49.6969 F       1  ZINC000464867530   -0.1800
     10 C10        -8.0176    3.2106   50.7358 C.2     1  ZINC000464867530    0.5300
     11 O11        -6.9012    3.1753   50.2631 O.2     1  ZINC000464867530   -0.5100
     12 C12        -8.2843    2.5951   52.0853 C.3     1  ZINC000464867530   -0.1200
     13 H13        -9.0860    3.1416   52.5823 H       1  ZINC000464867530    0.1000
     14 C14        -7.0151    2.6631   52.9376 C.3     1  ZINC000464867530   -0.1200
     15 C15        -7.2942    2.0681   54.3197 C.3     1  ZINC000464867530   -0.1300
     16 C16        -7.6956    0.5976   54.1666 C.3     1  ZINC000464867530    0.1000
     17 N17        -8.8266    0.5110   53.2326 N.am    1  ZINC000464867530   -0.6100
     18 C18        -9.9613   -0.1249   53.5855 C.2     1  ZINC000464867530    0.5500
     19 O19       -10.8873   -0.1909   52.8051 O.2     1  ZINC000464867530   -0.5300
     20 C20       -10.0795   -0.7539   54.9498 C.3     1  ZINC000464867530   -0.1700
     21 H21        -9.2363   -1.3725   55.2572 H       1  ZINC000464867530    0.1300
     22 C22       -11.4753   -1.1794   55.4141 C.3     1  ZINC000464867530   -0.1300
     23 C23       -10.8008    0.0412   56.0317 C.3     1  ZINC000464867530   -0.0600
     24 C24       -11.3222    1.4621   55.7601 C.3     1  ZINC000464867530   -0.0900
     25 C25       -10.5170    2.3051   56.7737 C.3     1  ZINC000464867530   -0.0800
     26 C26       -10.1612    1.3488   57.8926 C.ar    1  ZINC000464867530   -0.0900
     27 C27        -9.7295    1.6000   59.1835 C.ar    1  ZINC000464867530   -0.1100
     28 C28        -9.4594    0.5532   60.0434 C.ar    1  ZINC000464867530   -0.1100
     29 C29        -9.6205   -0.7506   59.6141 C.ar    1  ZINC000464867530   -0.1200
     30 C30       -10.0515   -1.0041   58.3264 C.ar    1  ZINC000464867530   -0.1000
     31 C31       -10.3233    0.0430   57.4624 C.ar    1  ZINC000464867530   -0.0700
     32 C32        -8.6978    1.1309   51.9068 C.3     1  ZINC000464867530    0.1300
     33 H33       -12.8224    2.6583   50.6790 H       1  ZINC000464867530    0.0600
     34 H34       -13.0284    4.4249   50.7482 H       1  ZINC000464867530    0.0600
     35 H35       -13.5324    3.5264   49.2967 H       1  ZINC000464867530    0.0600
     36 H36       -11.1692    2.9228   48.8498 H       1  ZINC000464867530    0.0700
     37 H37       -11.3752    4.6894   48.9191 H       1  ZINC000464867530    0.0700
     38 H38       -10.4998    4.7741   51.1766 H       1  ZINC000464867530    0.0900
     39 H39       -10.5037    2.9985   51.3005 H       1  ZINC000464867530    0.0900
     40 H40        -7.9013    3.9094   48.2832 H       1  ZINC000464867530    0.1300
     41 H41        -9.6351    4.2703   48.1050 H       1  ZINC000464867530    0.1200
     42 H42        -6.2207    2.0963   52.4520 H       1  ZINC000464867530    0.0800
     43 H43        -6.7054    3.7026   53.0455 H       1  ZINC000464867530    0.0800
     44 H44        -6.3965    2.1381   54.9339 H       1  ZINC000464867530    0.0900
     45 H45        -8.1053    2.6189   54.7959 H       1  ZINC000464867530    0.0700
     46 H46        -6.8533    0.0278   53.7743 H       1  ZINC000464867530    0.0700
     47 H47        -7.9908    0.1966   55.1361 H       1  ZINC000464867530    0.0900
     48 H48       -12.3077   -1.0044   54.7326 H       1  ZINC000464867530    0.1100
     49 H49       -11.5500   -2.0774   56.0274 H       1  ZINC000464867530    0.1100
     50 H50       -11.1000    1.7682   54.7378 H       1  ZINC000464867530    0.0700
     51 H51       -12.3912    1.5286   55.9626 H       1  ZINC000464867530    0.0800
     52 H52        -9.6121    2.6945   56.3072 H       1  ZINC000464867530    0.0800
     53 H53       -11.1283    3.1227   57.1555 H       1  ZINC000464867530    0.0800
     54 H54        -9.6029    2.6185   59.5196 H       1  ZINC000464867530    0.1200
     55 H55        -9.1224    0.7533   61.0498 H       1  ZINC000464867530    0.1300
     56 H56        -9.4093   -1.5705   60.2846 H       1  ZINC000464867530    0.1300
     57 H57       -10.1765   -2.0235   57.9922 H       1  ZINC000464867530    0.1200
     58 H58        -9.6539    1.0813   51.3857 H       1  ZINC000464867530    0.1000
     59 H59        -7.9371    0.6050   51.3298 H       1  ZINC000464867530    0.0800
@<TRIPOS>BOND
     1     1     2    1
     2     1    33    1
     3     1    34    1
     4     1    35    1
     5     2     3    1
     6     2    36    1
     7     2    37    1
     8     3     4    1
     9     3    38    1
    10     3    39    1
    11     4     5    1
    12     4    10   am
    13     5     6    1
    14     5    40    1
    15     5    41    1
    16     6     7    1
    17     6     8    1
    18     6     9    1
    19    10    11    2
    20    10    12    1
    21    12    13    1
    22    12    32    1
    23    12    14    1
    24    14    15    1
    25    14    42    1
    26    14    43    1
    27    15    16    1
    28    15    44    1
    29    15    45    1
    30    16    17    1
    31    16    46    1
    32    16    47    1
    33    17    18   am
    34    17    32    1
    35    18    19    2
    36    18    20    1
    37    20    21    1
    38    20    23    1
    39    20    22    1
    40    22    23    1
    41    22    48    1
    42    22    49    1
    43    23    31    1
    44    23    24    1
    45    24    25    1
    46    24    50    1
    47    24    51    1
    48    25    26    1
    49    25    52    1
    50    25    53    1
    51    26    31   ar
    52    26    27   ar
    53    27    28   ar
    54    27    54    1
    55    28    29   ar
    56    28    55    1
    57    29    30   ar
    58    29    56    1
    59    30    31   ar
    60    30    57    1
    61    32    58    1
    62    32    59    1
@<TRIPOS>SUBSTRUCTURE
     1 ZINC000464867530        1 TEMP              0 ****  ****    0 ROOT


##########                                Name:    ZINC000484424341
##########                DOCK_Rotatable_Bonds:                   7
##########                         Heavy_Atoms:                  26
##########                    Molecular_Weight:             359.425
##########                DOCK_Rotatable_Bonds:                   7
##########                       Formal_Charge:          -0.0100009
##########                     HBond_Acceptors:                   7
##########                        HBond_Donors:                   1
##########                         Heavy_Atoms:                  26
##########                          Grid_Score:          -28.275286
##########                     Grid_vdw_energy:          -26.750051
##########                      Grid_es_energy:           -1.525235
##########           Internal_energy_repulsive:           19.729521

@<TRIPOS>MOLECULE
ZINC000484424341
 51 53 1 0 0
SMALL
USER_CHARGES


@<TRIPOS>ATOM
      1 C1         -8.7305    4.8717   47.5447 C.3     1  ZINC000484424341    0.0300
      2 O2         -7.9285    4.6532   48.7070 O.3     1  ZINC000484424341   -0.3800
      3 C3         -8.6825    4.4564   49.9048 C.3     1  ZINC000484424341    0.1300
      4 H4         -9.5733    3.8696   49.6810 H       1  ZINC000484424341    0.0700
      5 C5         -9.0962    5.8141   50.4760 C.3     1  ZINC000484424341   -0.1700
      6 C6         -7.8384    3.7226   50.9148 C.ar    1  ZINC000484424341   -0.0700
      7 C7         -6.4701    3.9197   50.9449 C.ar    1  ZINC000484424341   -0.1000
      8 C8         -5.6916    3.2483   51.8702 C.ar    1  ZINC000484424341   -0.1000
      9 C9         -6.2788    2.3785   52.7674 C.ar    1  ZINC000484424341   -0.1100
     10 C10        -7.6535    2.1781   52.7401 C.ar    1  ZINC000484424341    0.1400
     11 N11        -8.2511    1.2990   53.6469 N.am    1  ZINC000484424341   -0.6400
     12 C12        -8.7443    0.1204   53.2177 C.2     1  ZINC000484424341    0.5100
     13 O13        -8.6692   -0.1774   52.0434 O.2     1  ZINC000484424341   -0.4900
     14 C14        -9.3830   -0.8192   54.1870 C.2     1  ZINC000484424341    0.5200
     15 O15        -9.5122   -1.9915   53.9006 O.2     1  ZINC000484424341   -0.5200
     16 N16        -9.8159   -0.3654   55.3800 N.am    1  ZINC000484424341   -0.5800
     17 C17        -9.7227    1.0233   55.8536 C.3     1  ZINC000484424341    0.1100
     18 C18       -10.3683    1.0741   57.2544 C.3     1  ZINC000484424341   -0.1500
     19 C19       -11.2953   -0.1702   57.2551 C.3     1  ZINC000484424341    0.1500
     20 H20       -12.2440    0.0491   56.7650 H       1  ZINC000484424341    0.1100
     21 N21       -11.5128   -0.6622   58.6177 N.am    1  ZINC000484424341   -0.6100
     22 C22       -10.6643   -1.6569   59.2844 C.3     1  ZINC000484424341    0.1000
     23 C23       -10.9925   -1.5366   60.7890 C.3     1  ZINC000484424341   -0.1300
     24 C24       -12.4291   -0.9657   60.7537 C.3     1  ZINC000484424341   -0.1600
     25 C25       -12.5120   -0.2564   59.4200 C.2     1  ZINC000484424341    0.5200
     26 O26       -13.3608    0.5549   59.1163 O.2     1  ZINC000484424341   -0.5200
     27 C27       -10.4672   -1.1780   56.4235 C.3     1  ZINC000484424341    0.0900
     28 C28        -8.4330    2.8582   51.8132 C.ar    1  ZINC000484424341   -0.1300
     29 H29        -9.3439    5.7612   47.6884 H       1  ZINC000484424341    0.0400
     30 H30        -8.0840    5.0123   46.6783 H       1  ZINC000484424341    0.0900
     31 H31        -9.3752    4.0082   47.3806 H       1  ZINC000484424341    0.0400
     32 H32        -8.2053    6.4008   50.6998 H       1  ZINC000484424341    0.0700
     33 H33        -9.7067    6.3448   49.7455 H       1  ZINC000484424341    0.0600
     34 H34        -9.6713    5.6639   51.3897 H       1  ZINC000484424341    0.0700
     35 H35        -6.0081    4.5991   50.2440 H       1  ZINC000484424341    0.1300
     36 H36        -4.6231    3.4043   51.8906 H       1  ZINC000484424341    0.1300
     37 H37        -5.6703    1.8543   53.4895 H       1  ZINC000484424341    0.1300
     38 H38        -8.3110    1.5369   54.5854 H       1  ZINC000484424341    0.4200
     39 H39        -8.6770    1.3242   55.9162 H       1  ZINC000484424341    0.0800
     40 H40       -10.2606    1.6838   55.1734 H       1  ZINC000484424341    0.0800
     41 H41        -9.6093    0.9899   58.0321 H       1  ZINC000484424341    0.0900
     42 H42       -10.9494    1.9879   57.3783 H       1  ZINC000484424341    0.0900
     43 H43       -10.9030   -2.6579   58.9251 H       1  ZINC000484424341    0.0800
     44 H44        -9.6120   -1.4334   59.1088 H       1  ZINC000484424341    0.0800
     45 H45       -10.9728   -2.5135   61.2720 H       1  ZINC000484424341    0.0900
     46 H46       -10.3100   -0.8450   61.2830 H       1  ZINC000484424341    0.0800
     47 H47       -13.1612   -1.7714   60.8077 H       1  ZINC000484424341    0.1100
     48 H48       -12.5785   -0.2579   61.5690 H       1  ZINC000484424341    0.1000
     49 H49       -11.1202   -1.9262   55.9742 H       1  ZINC000484424341    0.0900
     50 H50        -9.7139   -1.6572   57.0489 H       1  ZINC000484424341    0.0900
     51 H51        -9.5019    2.7051   51.7894 H       1  ZINC000484424341    0.1300
@<TRIPOS>BOND
     1     1     2    1
     2     1    29    1
     3     1    30    1
     4     1    31    1
     5     2     3    1
     6     3     4    1
     7     3     5    1
     8     3     6    1
     9     5    32    1
    10     5    33    1
    11     5    34    1
    12     6    28   ar
    13     6     7   ar
    14     7     8   ar
    15     7    35    1
    16     8     9   ar
    17     8    36    1
    18     9    10   ar
    19     9    37    1
    20    10    11    1
    21    10    28   ar
    22    11    12   am
    23    11    38    1
    24    12    13    2
    25    12    14    1
    26    14    15    2
    27    14    16   am
    28    16    27    1
    29    16    17    1
    30    17    18    1
    31    17    39    1
    32    17    40    1
    33    18    19    1
    34    18    41    1
    35    18    42    1
    36    19    20    1
    37    19    21    1
    38    19    27    1
    39    21    25   am
    40    21    22    1
    41    22    23    1
    42    22    43    1
    43    22    44    1
    44    23    24    1
    45    23    45    1
    46    23    46    1
    47    24    25    1
    48    24    47    1
    49    24    48    1
    50    25    26    2
    51    27    49    1
    52    27    50    1
    53    28    51    1
@<TRIPOS>SUBSTRUCTURE
     1 ZINC000484424341        1 TEMP              0 ****  ****    0 ROOT


##########                                Name:    ZINC000011157684
##########                DOCK_Rotatable_Bonds:                   7
##########                         Heavy_Atoms:                  25
##########                    Molecular_Weight:             374.866
##########                DOCK_Rotatable_Bonds:                   7
##########                       Formal_Charge:           0.0400001
##########                     HBond_Acceptors:                   6
##########                        HBond_Donors:                   2
##########                         Heavy_Atoms:                  25
##########                          Grid_Score:          -28.211634
##########                     Grid_vdw_energy:          -27.401684
##########                      Grid_es_energy:           -0.809951
##########           Internal_energy_repulsive:            9.907008

@<TRIPOS>MOLECULE
ZINC000011157684
 41 43 1 0 0
SMALL
USER_CHARGES


@<TRIPOS>ATOM
      1 O1         -9.6901   -1.2655   60.5427 O.2     1  ZINC000011157684   -0.5200
      2 C2         -9.2675   -0.1337   60.4360 C.2     1  ZINC000011157684    0.5100
      3 C3         -8.3742    0.2311   59.2784 C.3     1  ZINC000011157684    0.1000
      4 N4         -9.1719    0.8682   58.2278 N.pl3   1  ZINC000011157684   -0.7300
      5 C5         -8.9150    0.5808   56.8830 C.ar    1  ZINC000011157684    0.2200
      6 C6         -7.9346    1.2842   56.1968 C.ar    1  ZINC000011157684   -0.1600
      7 C7         -7.6820    0.9985   54.8688 C.ar    1  ZINC000011157684   -0.0900
      8 C8         -8.4062    0.0120   54.2216 C.ar    1  ZINC000011157684    0.0500
      9 F9         -8.1576   -0.2650   52.9229 F       1  ZINC000011157684   -0.1400
     10 C10        -9.3847   -0.6918   54.9036 C.ar    1  ZINC000011157684   -0.0900
     11 C11        -9.6373   -0.4133   56.2333 C.ar    1  ZINC000011157684   -0.0900
     12 Cl12      -10.8640   -1.2956   57.0881 Cl      1  ZINC000011157684   -0.0500
     13 N13        -9.6013    0.7993   61.3496 N.am    1  ZINC000011157684   -0.7200
     14 C14       -10.4696    0.4447   62.4749 C.3     1  ZINC000011157684    0.2600
     15 H15       -10.9326   -0.5238   62.2856 H       1  ZINC000011157684    0.1200
     16 C16       -11.5420    1.4920   62.6315 C.2     1  ZINC000011157684   -0.1900
     17 C17       -11.3542    2.7171   63.1245 C.2     1  ZINC000011157684   -0.1200
     18 C18       -12.4899    3.5071   63.1718 C.2     1  ZINC000011157684   -0.1300
     19 C19       -13.5999    2.9235   62.7174 C.2     1  ZINC000011157684   -0.2100
     20 S20       -13.2309    1.2883   62.1849 S.3     1  ZINC000011157684    0.1100
     21 C21        -9.6506    0.3717   63.7379 C.ar    1  ZINC000011157684   -0.0900
     22 C22        -8.2817    0.1938   63.6645 C.ar    1  ZINC000011157684   -0.1100
     23 C23        -7.5305    0.1268   64.8229 C.ar    1  ZINC000011157684   -0.1100
     24 C24        -8.1479    0.2382   66.0547 C.ar    1  ZINC000011157684   -0.1100
     25 C25        -9.5167    0.4170   66.1279 C.ar    1  ZINC000011157684   -0.1100
     26 C26       -10.2675    0.4883   64.9694 C.ar    1  ZINC000011157684   -0.1000
     27 H27        -7.6027    0.9222   59.6184 H       1  ZINC000011157684    0.1000
     28 H28        -7.9058   -0.6702   58.8828 H       1  ZINC000011157684    0.1000
     29 H29        -9.8783    1.4894   58.4646 H       1  ZINC000011157684    0.4200
     30 H30        -7.3696    2.0544   56.7007 H       1  ZINC000011157684    0.1400
     31 H31        -6.9192    1.5456   54.3349 H       1  ZINC000011157684    0.1400
     32 H32        -9.9483   -1.4613   54.3969 H       1  ZINC000011157684    0.1500
     33 H33        -9.2664    1.7055   61.2620 H       1  ZINC000011157684    0.4000
     34 H34       -10.3893    3.0660   63.4615 H       1  ZINC000011157684    0.1400
     35 H35       -12.4782    4.5192   63.5487 H       1  ZINC000011157684    0.1400
     36 H36       -14.5753    3.3857   62.6787 H       1  ZINC000011157684    0.1700
     37 H37        -7.7993    0.1068   62.7022 H       1  ZINC000011157684    0.1200
     38 H38        -6.4610   -0.0129   64.7656 H       1  ZINC000011157684    0.1300
     39 H39        -7.5610    0.1851   66.9598 H       1  ZINC000011157684    0.1300
     40 H40        -9.9992    0.5036   67.0903 H       1  ZINC000011157684    0.1300
     41 H41       -11.3368    0.6280   65.0267 H       1  ZINC000011157684    0.1300
@<TRIPOS>BOND
     1     1     2    2
     2     2     3    1
     3     2    13   am
     4     3     4    1
     5     3    27    1
     6     3    28    1
     7     4     5    1
     8     4    29    1
     9     5    11   ar
    10     5     6   ar
    11     6     7   ar
    12     6    30    1
    13     7     8   ar
    14     7    31    1
    15     8     9    1
    16     8    10   ar
    17    10    11   ar
    18    10    32    1
    19    11    12    1
    20    13    14    1
    21    13    33    1
    22    14    15    1
    23    14    16    1
    24    14    21    1
    25    16    20    1
    26    16    17    2
    27    17    18    1
    28    17    34    1
    29    18    19    2
    30    18    35    1
    31    19    20    1
    32    19    36    1
    33    21    26   ar
    34    21    22   ar
    35    22    23   ar
    36    22    37    1
    37    23    24   ar
    38    23    38    1
    39    24    25   ar
    40    24    39    1
    41    25    26   ar
    42    25    40    1
    43    26    41    1
@<TRIPOS>SUBSTRUCTURE
     1 ZINC000011157684        1 TEMP              0 ****  ****    0 ROOT


##########                                Name:    ZINC000971513996
##########                DOCK_Rotatable_Bonds:                   6
##########                         Heavy_Atoms:                  27
##########                    Molecular_Weight:             369.464
##########                DOCK_Rotatable_Bonds:                   6
##########                       Formal_Charge:          -0.0300002
##########                     HBond_Acceptors:                   6
##########                        HBond_Donors:                   1
##########                         Heavy_Atoms:                  27
##########                          Grid_Score:          -28.199831
##########                     Grid_vdw_energy:          -27.790823
##########                      Grid_es_energy:           -0.409008
##########           Internal_energy_repulsive:           12.572910

@<TRIPOS>MOLECULE
ZINC000971513996
 54 57 1 0 0
SMALL
USER_CHARGES


@<TRIPOS>ATOM
      1 C1        -12.4501   -1.9651   58.9425 C.3     1  ZINC000971513996   -0.1600
      2 C2        -12.1150   -2.2718   57.4815 C.3     1  ZINC000971513996   -0.1400
      3 C3        -11.1947   -1.1812   56.9296 C.3     1  ZINC000971513996    0.0800
      4 H4        -11.6365   -0.2029   57.1189 H       1  ZINC000971513996    0.0800
      5 O5         -9.9215   -1.2616   57.5733 O.3     1  ZINC000971513996   -0.3600
      6 C6         -9.4177   -0.0026   58.0243 C.3     1  ZINC000971513996    0.0200
      7 C7        -11.0203   -1.3748   55.4453 C.2     1  ZINC000971513996    0.5400
      8 O8        -10.1913   -2.1560   55.0289 O.2     1  ZINC000971513996   -0.5100
      9 N9        -11.7855   -0.6799   54.5805 N.am    1  ZINC000971513996   -0.6400
     10 C10       -12.8601    0.3232   54.6713 C.3     1  ZINC000971513996    0.1000
     11 C11       -12.3855    0.8608   53.3076 C.3     1  ZINC000971513996   -0.1200
     12 H12       -13.1819    1.1762   52.6334 H       1  ZINC000971513996    0.1100
     13 C13       -11.2691    1.8947   53.4728 C.3     1  ZINC000971513996   -0.1200
     14 C14       -10.2474    1.7178   52.3457 C.3     1  ZINC000971513996    0.1100
     15 N15        -9.7265    0.3497   52.4091 N.am    1  ZINC000971513996   -0.6000
     16 C16        -8.3995    0.1442   52.5244 C.2     1  ZINC000971513996    0.5900
     17 O17        -7.9619   -0.9896   52.5773 O.2     1  ZINC000971513996   -0.5200
     18 C18        -7.4805    1.2906   52.5862 C.2     1  ZINC000971513996    0.0200
     19 C19        -6.8776    1.7569   53.7109 C.2     1  ZINC000971513996   -0.1000
     20 C20        -6.0773    2.8656   53.3431 C.ar    1  ZINC000971513996   -0.1100
     21 C21        -5.2432    3.7308   54.0623 C.ar    1  ZINC000971513996   -0.0600
     22 C22        -4.5846    4.7345   53.4133 C.ar    1  ZINC000971513996   -0.1200
     23 C23        -3.6880    5.6637   54.1903 C.3     1  ZINC000971513996   -0.1100
     24 C24        -4.7325    4.9073   52.0431 C.ar    1  ZINC000971513996   -0.0800
     25 C25        -5.5467    4.0696   51.3137 C.ar    1  ZINC000971513996   -0.1300
     26 C26        -6.2294    3.0389   51.9532 C.ar    1  ZINC000971513996    0.1100
     27 N27        -7.0879    2.0612   51.5089 N.pl3   1  ZINC000971513996   -0.5800
     28 C28       -10.6318   -0.7904   52.3487 C.3     1  ZINC000971513996    0.0700
     29 C29       -11.9199   -0.5763   53.1256 C.3     1  ZINC000971513996    0.1300
     30 H30       -12.7176   -1.2186   52.7526 H       1  ZINC000971513996    0.1100
     31 H31       -13.1865   -2.6825   59.3047 H       1  ZINC000971513996    0.0600
     32 H32       -11.5452   -2.0375   59.5458 H       1  ZINC000971513996    0.0600
     33 H33       -12.8574   -0.9568   59.0180 H       1  ZINC000971513996    0.0600
     34 H34       -11.6126   -3.2371   57.4189 H       1  ZINC000971513996    0.0800
     35 H35       -13.0342   -2.3019   56.8965 H       1  ZINC000971513996    0.0800
     36 H36        -9.2136    0.6360   57.1648 H       1  ZINC000971513996    0.0400
     37 H37       -10.1579    0.4764   58.6652 H       1  ZINC000971513996    0.0500
     38 H38        -8.4974   -0.1600   58.5867 H       1  ZINC000971513996    0.0900
     39 H39       -13.8611   -0.1076   54.6448 H       1  ZINC000971513996    0.0900
     40 H40       -12.7262    1.0317   55.4888 H       1  ZINC000971513996    0.0800
     41 H41       -11.6923    2.8981   53.4265 H       1  ZINC000971513996    0.0900
     42 H42       -10.7781    1.7498   54.4353 H       1  ZINC000971513996    0.0700
     43 H43       -10.7303    1.8830   51.3826 H       1  ZINC000971513996    0.0800
     44 H44        -9.4310    2.4284   52.4748 H       1  ZINC000971513996    0.1000
     45 H45        -6.9888    1.3542   54.7069 H       1  ZINC000971513996    0.1500
     46 H46        -5.1219    3.6044   55.1280 H       1  ZINC000971513996    0.1200
     47 H47        -2.6763    5.2586   54.2120 H       1  ZINC000971513996    0.0700
     48 H48        -3.6771    6.6429   53.7114 H       1  ZINC000971513996    0.0600
     49 H49        -4.0620    5.7618   55.2094 H       1  ZINC000971513996    0.0600
     50 H50        -4.2041    5.7065   51.5447 H       1  ZINC000971513996    0.1300
     51 H51        -5.6556    4.2123   50.2488 H       1  ZINC000971513996    0.1200
     52 H52        -7.3721    1.9341   50.5902 H       1  ZINC000971513996    0.4200
     53 H53       -10.8911   -0.9780   51.3067 H       1  ZINC000971513996    0.0800
     54 H54       -10.1189   -1.6673   52.7438 H       1  ZINC000971513996    0.1200
@<TRIPOS>BOND
     1     1     2    1
     2     1    31    1
     3     1    32    1
     4     1    33    1
     5     2     3    1
     6     2    34    1
     7     2    35    1
     8     3     4    1
     9     3     5    1
    10     3     7    1
    11     5     6    1
    12     6    36    1
    13     6    37    1
    14     6    38    1
    15     7     8    2
    16     7     9   am
    17     9    29    1
    18     9    10    1
    19    10    11    1
    20    10    39    1
    21    10    40    1
    22    11    12    1
    23    11    29    1
    24    11    13    1
    25    13    14    1
    26    13    41    1
    27    13    42    1
    28    14    15    1
    29    14    43    1
    30    14    44    1
    31    15    16   am
    32    15    28    1
    33    16    17    2
    34    16    18    1
    35    18    27    1
    36    18    19    2
    37    19    20    1
    38    19    45    1
    39    20    26   ar
    40    20    21   ar
    41    21    22   ar
    42    21    46    1
    43    22    23    1
    44    22    24   ar
    45    23    47    1
    46    23    48    1
    47    23    49    1
    48    24    25   ar
    49    24    50    1
    50    25    26   ar
    51    25    51    1
    52    26    27    1
    53    27    52    1
    54    28    29    1
    55    28    53    1
    56    28    54    1
    57    29    30    1
@<TRIPOS>SUBSTRUCTURE
     1 ZINC000971513996        1 TEMP              0 ****  ****    0 ROOT


##########                                Name:    ZINC000771225867
##########                DOCK_Rotatable_Bonds:                   9
##########                         Heavy_Atoms:                  23
##########                    Molecular_Weight:             355.802
##########                DOCK_Rotatable_Bonds:                   9
##########                       Formal_Charge:        -3.12924e-07
##########                     HBond_Acceptors:                   9
##########                        HBond_Donors:                   3
##########                         Heavy_Atoms:                  23
##########                          Grid_Score:          -28.175499
##########                     Grid_vdw_energy:          -27.656136
##########                      Grid_es_energy:           -0.519363
##########           Internal_energy_repulsive:            5.013440

@<TRIPOS>MOLECULE
ZINC000771225867
 37 38 1 0 0
SMALL
USER_CHARGES


@<TRIPOS>ATOM
      1 C1         -7.1166    0.2449   66.2309 C.3     1  ZINC000771225867    0.0400
      2 O2         -8.2789    0.9899   66.5999 O.3     1  ZINC000771225867   -0.3600
      3 C3         -9.4010    0.7702   65.8826 C.2     1  ZINC000771225867    0.5500
      4 O4        -10.4476    0.5203   66.4513 O.2     1  ZINC000771225867   -0.4900
      5 C5         -9.3603    0.8303   64.4691 C.2     1  ZINC000771225867   -0.3400
      6 C6         -9.6176    1.9349   63.6999 C.2     1  ZINC000771225867    0.2700
      7 Cl7       -10.0462    3.4770   64.3722 Cl      1  ZINC000771225867    0.0400
      8 N8         -9.5109    1.7225   62.4126 N.2     1  ZINC000771225867   -0.5500
      9 C9         -9.1824    0.5213   62.0310 C.2     1  ZINC000771225867    0.3400
     10 N10        -9.0272    0.1297   60.7190 N.pl3   1  ZINC000771225867   -0.6700
     11 C11        -9.5529    0.9667   59.6378 C.3     1  ZINC000771225867    0.1700
     12 C12        -9.7769    0.1204   58.4111 C.ar    1  ZINC000771225867   -0.0800
     13 C13       -10.4057   -1.1056   58.5232 C.ar    1  ZINC000771225867   -0.1300
     14 C14       -10.6127   -1.8845   57.3995 C.ar    1  ZINC000771225867   -0.0800
     15 C15       -10.1914   -1.4391   56.1618 C.ar    1  ZINC000771225867   -0.2000
     16 C16        -9.5600   -0.2089   56.0465 C.ar    1  ZINC000771225867    0.1300
     17 O17        -9.1449    0.2318   54.8298 O.3     1  ZINC000771225867   -0.2900
     18 C18       -10.1441    0.3856   53.8201 C.3     1  ZINC000771225867    0.0400
     19 C19        -9.8486   -0.5478   52.6745 C.2     1  ZINC000771225867    0.5200
     20 N20       -10.7354   -0.6819   51.6684 N.am    1  ZINC000771225867   -0.8500
     21 O21        -8.8127   -1.1784   52.6579 O.2     1  ZINC000771225867   -0.5200
     22 C22        -9.3585    0.5730   57.1744 C.ar    1  ZINC000771225867   -0.1200
     23 S23        -8.9622   -0.4994   63.3840 S.3     1  ZINC000771225867    0.2200
     24 H24        -7.3223   -0.8211   66.3281 H       1  ZINC000771225867    0.0600
     25 H25        -6.8528    0.4713   65.1978 H       1  ZINC000771225867    0.0600
     26 H26        -6.2882    0.5163   66.8852 H       1  ZINC000771225867    0.1000
     27 H27        -8.5698   -0.7001   60.5115 H       1  ZINC000771225867    0.4200
     28 H28       -10.4979    1.4118   59.9495 H       1  ZINC000771225867    0.0900
     29 H29        -8.8374    1.7563   59.4087 H       1  ZINC000771225867    0.0900
     30 H30       -10.7355   -1.4558   59.4901 H       1  ZINC000771225867    0.1300
     31 H31       -11.1040   -2.8421   57.4897 H       1  ZINC000771225867    0.1300
     32 H32       -10.3530   -2.0480   55.2846 H       1  ZINC000771225867    0.1300
     33 H33       -11.1226    0.1493   54.2381 H       1  ZINC000771225867    0.1000
     34 H34       -10.1417    1.4146   53.4602 H       1  ZINC000771225867    0.1000
     35 H35       -10.5446   -1.2819   50.9305 H       1  ZINC000771225867    0.4000
     36 H36       -11.5643   -0.1784   51.6823 H       1  ZINC000771225867    0.4100
     37 H37        -8.8673    1.5309   57.0874 H       1  ZINC000771225867    0.1400
@<TRIPOS>BOND
     1     1     2    1
     2     1    24    1
     3     1    25    1
     4     1    26    1
     5     2     3    1
     6     3     4    2
     7     3     5    1
     8     5    23    1
     9     5     6    2
    10     6     7    1
    11     6     8    1
    12     8     9    2
    13     9    10    1
    14     9    23    1
    15    10    11    1
    16    10    27    1
    17    11    12    1
    18    11    28    1
    19    11    29    1
    20    12    22   ar
    21    12    13   ar
    22    13    14   ar
    23    13    30    1
    24    14    15   ar
    25    14    31    1
    26    15    16   ar
    27    15    32    1
    28    16    17    1
    29    16    22   ar
    30    17    18    1
    31    18    19    1
    32    18    33    1
    33    18    34    1
    34    19    20   am
    35    19    21    2
    36    20    35    1
    37    20    36    1
    38    22    37    1
@<TRIPOS>SUBSTRUCTURE
     1 ZINC000771225867        1 TEMP              0 ****  ****    0 ROOT


##########                                Name:    ZINC001067316277
##########                DOCK_Rotatable_Bonds:                   5
##########                         Heavy_Atoms:                  24
##########                    Molecular_Weight:             345.469
##########                DOCK_Rotatable_Bonds:                   5
##########                       Formal_Charge:          -0.0200007
##########                     HBond_Acceptors:                   7
##########                        HBond_Donors:                   2
##########                         Heavy_Atoms:                  24
##########                          Grid_Score:          -28.157484
##########                     Grid_vdw_energy:          -27.797199
##########                      Grid_es_energy:           -0.360285
##########           Internal_energy_repulsive:            8.943233

@<TRIPOS>MOLECULE
ZINC001067316277
 47 49 1 0 0
SMALL
USER_CHARGES


@<TRIPOS>ATOM
      1 C1         -8.3319    0.1283   59.4537 C.3     1  ZINC001067316277   -0.1400
      2 S2         -9.3108   -1.2678   60.0609 S.3     1  ZINC001067316277   -0.0400
      3 C3        -10.2618   -1.6241   58.6210 C.ar    1  ZINC001067316277    0.1800
      4 C4        -11.1507   -2.7018   58.6074 C.ar    1  ZINC001067316277   -0.2400
      5 C5        -11.8752   -2.9434   57.4569 C.ar    1  ZINC001067316277    0.1900
      6 N6        -11.7079   -2.1523   56.4070 N.ar    1  ZINC001067316277   -0.5600
      7 C7        -10.8576   -1.1368   56.4476 C.ar    1  ZINC001067316277    0.5100
      8 N8        -10.7117   -0.3338   55.3299 N.3     1  ZINC001067316277   -0.4600
      9 C9        -10.5079    1.0691   55.7128 C.3     1  ZINC001067316277    0.0700
     10 C10       -10.4963    1.9452   54.4581 C.3     1  ZINC001067316277   -0.1300
     11 C11        -9.3714    1.4819   53.5283 C.3     1  ZINC001067316277    0.1600
     12 H12        -8.4110    1.6067   54.0284 H       1  ZINC001067316277    0.0900
     13 N13        -9.3913    2.2802   52.3000 N.am    1  ZINC001067316277   -0.7200
     14 C14        -8.3224    3.0301   51.9664 C.2     1  ZINC001067316277    0.5900
     15 O15        -7.3412    3.0453   52.6861 O.2     1  ZINC001067316277   -0.5300
     16 C16        -8.3416    3.8280   50.7358 C.2     1  ZINC001067316277   -0.0600
     17 C17        -7.3390    4.6628   50.2901 C.2     1  ZINC001067316277   -0.1000
     18 C18        -7.7740    5.2195   49.0833 C.2     1  ZINC001067316277   -0.2100
     19 C19        -9.0074    4.7261   48.8189 C.2     1  ZINC001067316277    0.0300
     20 N20        -9.3615    3.8751   49.8126 N.pl3   1  ZINC001067316277   -0.5400
     21 C21        -9.5808    0.0047   53.1836 C.3     1  ZINC001067316277   -0.0700
     22 C22       -10.9037   -0.1622   52.4334 C.3     1  ZINC001067316277   -0.1400
     23 C23        -8.4288   -0.4823   52.3023 C.3     1  ZINC001067316277   -0.1400
     24 C24        -9.6188   -0.8150   54.4753 C.3     1  ZINC001067316277    0.0800
     25 N25       -10.1481   -0.8677   57.5329 N.ar    1  ZINC001067316277   -0.5400
     26 H26        -7.7371   -0.1901   58.5975 H       1  ZINC001067316277    0.0900
     27 H27        -8.9990    0.9360   59.1523 H       1  ZINC001067316277    0.0900
     28 H28        -7.6702    0.4798   60.2453 H       1  ZINC001067316277    0.1000
     29 H29       -11.2683   -3.3319   59.4766 H       1  ZINC001067316277    0.1500
     30 H30       -12.5706   -3.7685   57.4130 H       1  ZINC001067316277    0.1700
     31 H31       -11.3168    1.3873   56.3704 H       1  ZINC001067316277    0.1000
     32 H32        -9.5558    1.1687   56.2341 H       1  ZINC001067316277    0.0500
     33 H33       -11.4533    1.8568   53.9437 H       1  ZINC001067316277    0.0800
     34 H34       -10.3294    2.9844   54.7414 H       1  ZINC001067316277    0.0800
     35 H35       -10.1739    2.2690   51.7270 H       1  ZINC001067316277    0.3900
     36 H36        -6.3955    4.8514   50.7806 H       1  ZINC001067316277    0.1500
     37 H37        -7.2244    5.9190   48.4710 H       1  ZINC001067316277    0.1500
     38 H38        -9.6090    4.9683   47.9552 H       1  ZINC001067316277    0.1700
     39 H39       -10.1970    3.3853   49.8670 H       1  ZINC001067316277    0.4100
     40 H40       -10.8774    0.4247   51.5153 H       1  ZINC001067316277    0.0500
     41 H41       -11.0522   -1.2138   52.1882 H       1  ZINC001067316277    0.0600
     42 H42       -11.7241    0.1837   53.0622 H       1  ZINC001067316277    0.0700
     43 H43        -7.4867   -0.3644   52.8377 H       1  ZINC001067316277    0.0600
     44 H44        -8.5784   -1.5338   52.0572 H       1  ZINC001067316277    0.0600
     45 H45        -8.4007    0.1044   51.3840 H       1  ZINC001067316277    0.0600
     46 H46        -8.6710   -0.7067   55.0023 H       1  ZINC001067316277    0.0600
     47 H47        -9.7820   -1.8655   54.2340 H       1  ZINC001067316277    0.1000
@<TRIPOS>BOND
     1     1     2    1
     2     1    26    1
     3     1    27    1
     4     1    28    1
     5     2     3    1
     6     3    25   ar
     7     3     4   ar
     8     4     5   ar
     9     4    29    1
    10     5     6   ar
    11     5    30    1
    12     6     7   ar
    13     7     8    1
    14     7    25   ar
    15     8    24    1
    16     8     9    1
    17     9    10    1
    18     9    31    1
    19     9    32    1
    20    10    11    1
    21    10    33    1
    22    10    34    1
    23    11    12    1
    24    11    13    1
    25    11    21    1
    26    13    14   am
    27    13    35    1
    28    14    15    2
    29    14    16    1
    30    16    20    1
    31    16    17    2
    32    17    18    1
    33    17    36    1
    34    18    19    2
    35    18    37    1
    36    19    20    1
    37    19    38    1
    38    20    39    1
    39    21    22    1
    40    21    23    1
    41    21    24    1
    42    22    40    1
    43    22    41    1
    44    22    42    1
    45    23    43    1
    46    23    44    1
    47    23    45    1
    48    24    46    1
    49    24    47    1
@<TRIPOS>SUBSTRUCTURE
     1 ZINC001067316277        1 TEMP              0 ****  ****    0 ROOT


##########                                Name:    ZINC001122903793
##########                DOCK_Rotatable_Bonds:                   4
##########                         Heavy_Atoms:                  25
##########                    Molecular_Weight:             399.968
##########                DOCK_Rotatable_Bonds:                   4
##########                       Formal_Charge:           0.0100003
##########                     HBond_Acceptors:                   9
##########                        HBond_Donors:                   0
##########                         Heavy_Atoms:                  25
##########                          Grid_Score:          -28.152704
##########                     Grid_vdw_energy:          -26.867239
##########                      Grid_es_energy:           -1.285465
##########           Internal_energy_repulsive:           33.114452

@<TRIPOS>MOLECULE
ZINC001122903793
 47 50 1 0 0
SMALL
USER_CHARGES


@<TRIPOS>ATOM
      1 C1        -14.0680   -2.9246   60.6963 C.3     1  ZINC001122903793   -0.1400
      2 C2        -13.9892   -1.6200   59.9009 C.3     1  ZINC001122903793   -0.0400
      3 H3        -13.4440   -0.8723   60.4770 H       1  ZINC001122903793    0.1000
      4 S4        -15.6686   -1.0159   59.5498 S.3     1  ZINC001122903793   -0.2500
      5 C5        -15.3426    0.3474   58.3906 C.3     1  ZINC001122903793   -0.0800
      6 C6        -14.4415   -0.1750   57.2665 C.3     1  ZINC001122903793    0.0700
      7 N7        -13.1601   -0.6174   57.8210 N.3     1  ZINC001122903793   -0.4800
      8 C8        -12.1978   -0.7166   56.8294 C.2     1  ZINC001122903793    0.3700
      9 N9        -12.1412   -1.6304   55.8888 N.2     1  ZINC001122903793   -0.2900
     10 N10       -11.1204   -1.4275   55.1351 N.2     1  ZINC001122903793   -0.2400
     11 C11       -10.4606   -0.3685   55.5495 C.2     1  ZINC001122903793    0.2600
     12 C12        -9.2365    0.1899   54.9521 C.2     1  ZINC001122903793   -0.1600
     13 C13        -8.7360   -0.1104   53.7303 C.2     1  ZINC001122903793    0.1600
     14 Cl14       -9.4937   -1.2402   52.6517 Cl      1  ZINC001122903793    0.0300
     15 N15        -7.6265    0.5279   53.4320 N.2     1  ZINC001122903793   -0.4600
     16 C16        -7.1568    1.3446   54.3157 C.2     1  ZINC001122903793    0.0300
     17 S17        -8.1649    1.3744   55.6959 S.3     1  ZINC001122903793    0.2200
     18 N18       -11.1345    0.1220   56.6455 N.pl3   1  ZINC001122903793   -0.4600
     19 C19       -10.7814    1.2939   57.4507 C.3     1  ZINC001122903793    0.1100
     20 C20       -10.2785    0.8377   58.8217 C.3     1  ZINC001122903793    0.0700
     21 H21       -11.0768    0.3371   59.3695 H       1  ZINC001122903793    0.0800
     22 C22        -9.0616   -0.1080   58.6608 C.3     1  ZINC001122903793   -0.1500
     23 C23        -8.3554    0.0847   60.0305 C.3     1  ZINC001122903793   -0.1500
     24 C24        -8.6424    1.5695   60.3412 C.3     1  ZINC001122903793    0.0500
     25 O25        -9.7872    1.9602   59.5715 O.3     1  ZINC001122903793   -0.3700
     26 C26       -13.2700   -1.8704   58.5711 C.3     1  ZINC001122903793    0.1000
     27 H27       -13.8394   -2.5935   57.9870 H       1  ZINC001122903793    0.0800
     28 C28       -11.8701   -2.4253   58.8418 C.3     1  ZINC001122903793   -0.1500
     29 H29       -13.0605   -3.2879   60.8993 H       1  ZINC001122903793    0.0800
     30 H30       -14.5861   -2.7450   61.6384 H       1  ZINC001122903793    0.0700
     31 H31       -14.6135   -3.6703   60.1180 H       1  ZINC001122903793    0.0700
     32 H32       -16.2832    0.7036   57.9703 H       1  ZINC001122903793    0.1200
     33 H33       -14.8408    1.1611   58.9140 H       1  ZINC001122903793    0.0900
     34 H34       -14.9303   -1.0136   56.7705 H       1  ZINC001122903793    0.0700
     35 H35       -14.2674    0.6209   56.5425 H       1  ZINC001122903793    0.0900
     36 H36        -6.2567    1.9294   54.1974 H       1  ZINC001122903793    0.2100
     37 H37        -9.9978    1.8589   56.9458 H       1  ZINC001122903793    0.1200
     38 H38       -11.6604    1.9257   57.5778 H       1  ZINC001122903793    0.1000
     39 H39        -9.3821   -1.1410   58.5259 H       1  ZINC001122903793    0.0900
     40 H40        -8.4205    0.2130   57.8398 H       1  ZINC001122903793    0.0800
     41 H41        -8.7962   -0.5625   60.7887 H       1  ZINC001122903793    0.0800
     42 H42        -7.2835   -0.0930   59.9427 H       1  ZINC001122903793    0.0900
     43 H43        -8.8541    1.6907   61.4036 H       1  ZINC001122903793    0.0700
     44 H44        -7.7826    2.1785   60.0624 H       1  ZINC001122903793    0.0700
     45 H45       -11.2987   -1.7019   59.4235 H       1  ZINC001122903793    0.0600
     46 H46       -11.9506   -3.3580   59.4001 H       1  ZINC001122903793    0.0800
     47 H47       -11.3635   -2.6113   57.8948 H       1  ZINC001122903793    0.0600
@<TRIPOS>BOND
     1     1     2    1
     2     1    29    1
     3     1    30    1
     4     1    31    1
     5     2     3    1
     6     2    26    1
     7     2     4    1
     8     4     5    1
     9     5     6    1
    10     5    32    1
    11     5    33    1
    12     6     7    1
    13     6    34    1
    14     6    35    1
    15     7     8    1
    16     7    26    1
    17     8    18    1
    18     8     9    2
    19     9    10    1
    20    10    11    2
    21    11    12    1
    22    11    18    1
    23    12    17    1
    24    12    13    2
    25    13    14    1
    26    13    15    1
    27    15    16    2
    28    16    17    1
    29    16    36    1
    30    18    19    1
    31    19    20    1
    32    19    37    1
    33    19    38    1
    34    20    21    1
    35    20    25    1
    36    20    22    1
    37    22    23    1
    38    22    39    1
    39    22    40    1
    40    23    24    1
    41    23    41    1
    42    23    42    1
    43    24    25    1
    44    24    43    1
    45    24    44    1
    46    26    27    1
    47    26    28    1
    48    28    45    1
    49    28    46    1
    50    28    47    1
@<TRIPOS>SUBSTRUCTURE
     1 ZINC001122903793        1 TEMP              0 ****  ****    0 ROOT


##########                                Name:    ZINC000052999724
##########                DOCK_Rotatable_Bonds:                   6
##########                         Heavy_Atoms:                  25
##########                    Molecular_Weight:             398.571
##########                DOCK_Rotatable_Bonds:                   6
##########                       Formal_Charge:           0.0399994
##########                     HBond_Acceptors:                   8
##########                        HBond_Donors:                   1
##########                         Heavy_Atoms:                  25
##########                          Grid_Score:          -28.098539
##########                     Grid_vdw_energy:          -27.180454
##########                      Grid_es_energy:           -0.918084
##########           Internal_energy_repulsive:           14.953053

@<TRIPOS>MOLECULE
ZINC000052999724
 47 49 1 0 0
SMALL
USER_CHARGES


@<TRIPOS>ATOM
      1 C1        -14.4296   -3.0036   58.9966 C.3     1  ZINC000052999724   -0.1400
      2 C2        -13.9105   -1.5724   58.8451 C.3     1  ZINC000052999724   -0.0400
      3 C3        -14.9155   -0.5974   59.4617 C.3     1  ZINC000052999724   -0.1400
      4 C4        -12.5855   -1.4412   59.5508 C.2     1  ZINC000052999724   -0.0400
      5 C5        -11.3859   -1.7058   58.9523 C.2     1  ZINC000052999724   -0.2600
      6 C6        -11.2064   -2.1466   57.5659 C.2     1  ZINC000052999724    0.6000
      7 O7        -11.1135   -3.3332   57.3118 O.2     1  ZINC000052999724   -0.5200
      8 N8        -11.1443   -1.2379   56.5724 N.am    1  ZINC000052999724   -0.6000
      9 C9        -11.2487    0.1983   56.8641 C.3     1  ZINC000052999724    0.1100
     10 C10       -10.0423    0.9153   56.2500 C.3     1  ZINC000052999724   -0.1400
     11 C11        -9.9601    0.5810   54.7588 C.3     1  ZINC000052999724    0.1500
     12 N12        -8.8267    1.2913   54.1612 N.am    1  ZINC000052999724   -1.1100
     13 S13        -8.8077    1.6000   52.5343 S.o2    1  ZINC000052999724    2.7200
     14 O14        -8.7082    0.3386   51.8877 O.2     1  ZINC000052999724   -0.9500
     15 O15        -9.8635    2.5187   52.2878 O.2     1  ZINC000052999724   -0.9400
     16 C16        -7.3093    2.4584   52.1838 C.2     1  ZINC000052999724   -0.8000
     17 C17        -6.1844    2.3633   52.8942 C.2     1  ZINC000052999724    0.0100
     18 C18        -5.1329    3.1329   52.4272 C.2     1  ZINC000052999724   -0.1600
     19 C19        -5.4039    3.8529   51.3376 C.2     1  ZINC000052999724   -0.1700
     20 S20        -7.0660    3.5656   50.8391 S.3     1  ZINC000052999724    0.2100
     21 C21        -9.7674   -0.9269   54.5820 C.3     1  ZINC000052999724   -0.1500
     22 C22       -10.9646   -1.6643   55.1780 C.3     1  ZINC000052999724    0.1100
     23 S23       -10.0923   -1.4323   60.1113 S.3     1  ZINC000052999724    0.2100
     24 C24       -11.2082   -0.9837   61.3215 C.2     1  ZINC000052999724   -0.2400
     25 C25       -12.4628   -1.0378   60.8593 C.2     1  ZINC000052999724   -0.1300
     26 H26       -13.7137   -3.6982   58.5573 H       1  ZINC000052999724    0.0600
     27 H27       -14.5570   -3.2338   60.0543 H       1  ZINC000052999724    0.0600
     28 H28       -15.3880   -3.0984   58.4860 H       1  ZINC000052999724    0.0600
     29 H29       -13.7831   -1.3421   57.7873 H       1  ZINC000052999724    0.0800
     30 H30       -15.0430   -0.8276   60.5195 H       1  ZINC000052999724    0.0600
     31 H31       -14.5457    0.4223   59.3537 H       1  ZINC000052999724    0.0600
     32 H32       -15.8739   -0.6922   58.9512 H       1  ZINC000052999724    0.0600
     33 H33       -12.1678    0.5931   56.4311 H       1  ZINC000052999724    0.0800
     34 H34       -11.2551    0.3526   57.9432 H       1  ZINC000052999724    0.0900
     35 H35       -10.1561    1.9919   56.3758 H       1  ZINC000052999724    0.0900
     36 H36        -9.1306    0.5847   56.7476 H       1  ZINC000052999724    0.0800
     37 H37       -10.8823    0.8892   54.2662 H       1  ZINC000052999724    0.0900
     38 H38        -8.0874    1.5808   54.7184 H       1  ZINC000052999724    0.4200
     39 H39        -6.1005    1.7339   53.7678 H       1  ZINC000052999724    0.1600
     40 H40        -4.1664    3.1494   52.9089 H       1  ZINC000052999724    0.1500
     41 H41        -4.7079    4.5090   50.8359 H       1  ZINC000052999724    0.1800
     42 H42        -9.6855   -1.1612   53.5207 H       1  ZINC000052999724    0.1000
     43 H43        -8.8582   -1.2401   55.0954 H       1  ZINC000052999724    0.0800
     44 H44       -10.7860   -2.7391   55.1432 H       1  ZINC000052999724    0.1000
     45 H45       -11.8626   -1.4225   54.6094 H       1  ZINC000052999724    0.0800
     46 H46       -10.9377   -0.6912   62.3253 H       1  ZINC000052999724    0.1700
     47 H47       -13.3172   -0.7906   61.4720 H       1  ZINC000052999724    0.1400
@<TRIPOS>BOND
     1     1     2    1
     2     1    26    1
     3     1    27    1
     4     1    28    1
     5     2     3    1
     6     2     4    1
     7     2    29    1
     8     3    30    1
     9     3    31    1
    10     3    32    1
    11     4    25    1
    12     4     5    2
    13     5     6    1
    14     5    23    1
    15     6     7    2
    16     6     8   am
    17     8    22    1
    18     8     9    1
    19     9    10    1
    20     9    33    1
    21     9    34    1
    22    10    11    1
    23    10    35    1
    24    10    36    1
    25    11    12    1
    26    11    21    1
    27    11    37    1
    28    12    13   am
    29    12    38    1
    30    13    14    2
    31    13    15    2
    32    13    16    1
    33    16    20    1
    34    16    17    2
    35    17    18    1
    36    17    39    1
    37    18    19    2
    38    18    40    1
    39    19    20    1
    40    19    41    1
    41    21    22    1
    42    21    42    1
    43    21    43    1
    44    22    44    1
    45    22    45    1
    46    23    24    1
    47    24    25    2
    48    24    46    1
    49    25    47    1
@<TRIPOS>SUBSTRUCTURE
     1 ZINC000052999724        1 TEMP              0 ****  ****    0 ROOT


##########                                Name:    ZINC000015179664
##########                DOCK_Rotatable_Bonds:                   8
##########                         Heavy_Atoms:                  25
##########                    Molecular_Weight:             361.422
##########                DOCK_Rotatable_Bonds:                   8
##########                       Formal_Charge:        -2.23517e-07
##########                     HBond_Acceptors:                   8
##########                        HBond_Donors:                   1
##########                         Heavy_Atoms:                  25
##########                          Grid_Score:          -28.075031
##########                     Grid_vdw_energy:          -26.813580
##########                      Grid_es_energy:           -1.261452
##########           Internal_energy_repulsive:           22.589525

@<TRIPOS>MOLECULE
ZINC000015179664
 44 45 1 0 0
SMALL
USER_CHARGES


@<TRIPOS>ATOM
      1 C1         -8.5495    3.8868   57.1398 C.3     1  ZINC000015179664   -0.1600
      2 C2         -8.3791    2.3915   57.4155 C.3     1  ZINC000015179664    0.1800
      3 H3         -7.3211    2.1327   57.3742 H       1  ZINC000015179664    0.1200
      4 C4         -9.1308    1.6002   56.3764 C.ar    1  ZINC000015179664   -0.1000
      5 C5        -10.5047    1.4762   56.4625 C.ar    1  ZINC000015179664   -0.0700
      6 C6        -11.1943    0.7503   55.5091 C.ar    1  ZINC000015179664   -0.1200
      7 C7        -10.5099    0.1489   54.4697 C.ar    1  ZINC000015179664   -0.0500
      8 C8         -9.1357    0.2737   54.3831 C.ar    1  ZINC000015179664   -0.0400
      9 N9         -8.4027   -0.3707   53.2702 N.pl3   1  ZINC000015179664    0.0300
     10 O10        -9.0102   -1.0109   52.4308 O.2     1  ZINC000015179664   -0.1600
     11 O11        -7.1921   -0.2607   53.1940 O.2     1  ZINC000015179664   -0.1500
     12 C12        -8.4467    1.0031   55.3338 C.ar    1  ZINC000015179664   -0.0400
     13 N13        -8.9072    2.0769   58.7453 N.am    1  ZINC000015179664   -0.6100
     14 C14        -9.7845    3.0302   59.4295 C.3     1  ZINC000015179664    0.0600
     15 C15        -8.5862    0.9105   59.3393 C.2     1  ZINC000015179664    0.5200
     16 O16        -7.8611    0.1207   58.7723 O.2     1  ZINC000015179664   -0.5200
     17 C17        -9.1280    0.5876   60.7079 C.3     1  ZINC000015179664   -0.1500
     18 C18        -9.0599   -0.9231   60.9401 C.3     1  ZINC000015179664    0.1300
     19 N19       -10.0252   -1.5955   60.0671 N.am    1  ZINC000015179664   -0.7300
     20 C20       -11.3107   -1.7188   60.4526 C.2     1  ZINC000015179664    0.5800
     21 O21       -11.6692   -1.2733   61.5261 O.2     1  ZINC000015179664   -0.5300
     22 C22       -12.2809   -2.3929   59.5745 C.2     1  ZINC000015179664   -0.1500
     23 C23       -12.0043   -2.7621   58.2951 C.2     1  ZINC000015179664   -0.2200
     24 S24       -13.3538   -3.5156   57.5768 S.3     1  ZINC000015179664    0.1900
     25 C25       -14.3226   -3.3342   59.0289 C.2     1  ZINC000015179664   -0.2300
     26 C26       -13.6226   -2.7355   59.9852 C.2     1  ZINC000015179664   -0.0900
     27 H27        -8.1565    4.1209   56.1503 H       1  ZINC000015179664    0.0800
     28 H28        -9.6075    4.1456   57.1810 H       1  ZINC000015179664    0.0600
     29 H29        -8.0058    4.4591   57.8914 H       1  ZINC000015179664    0.0700
     30 H30       -11.0395    1.9461   57.2746 H       1  ZINC000015179664    0.1500
     31 H31       -12.2677    0.6527   55.5767 H       1  ZINC000015179664    0.1500
     32 H32       -11.0486   -0.4187   53.7254 H       1  ZINC000015179664    0.1600
     33 H33        -7.3733    1.1006   55.2662 H       1  ZINC000015179664    0.1600
     34 H34       -10.8181    2.8484   59.1354 H       1  ZINC000015179664    0.0600
     35 H35        -9.6861    2.9052   60.5078 H       1  ZINC000015179664    0.0800
     36 H36        -9.5017    4.0463   59.1542 H       1  ZINC000015179664    0.0800
     37 H37        -8.5323    1.0987   61.4643 H       1  ZINC000015179664    0.1000
     38 H38       -10.1639    0.9194   60.7761 H       1  ZINC000015179664    0.1000
     39 H39        -8.0552   -1.2805   60.7141 H       1  ZINC000015179664    0.0800
     40 H40        -9.2977   -1.1418   61.9811 H       1  ZINC000015179664    0.0800
     41 H41        -9.7391   -1.9518   59.2114 H       1  ZINC000015179664    0.4000
     42 H42       -11.0576   -2.5997   57.8012 H       1  ZINC000015179664    0.1700
     43 H43       -15.3449   -3.6669   59.1318 H       1  ZINC000015179664    0.1700
     44 H44       -14.0181   -2.5200   60.9667 H       1  ZINC000015179664    0.1600
@<TRIPOS>BOND
     1     1     2    1
     2     1    27    1
     3     1    28    1
     4     1    29    1
     5     2     3    1
     6     2     4    1
     7     2    13    1
     8     4    12   ar
     9     4     5   ar
    10     5     6   ar
    11     5    30    1
    12     6     7   ar
    13     6    31    1
    14     7     8   ar
    15     7    32    1
    16     8     9    1
    17     8    12   ar
    18     9    10    2
    19     9    11    2
    20    12    33    1
    21    13    14    1
    22    13    15   am
    23    14    34    1
    24    14    35    1
    25    14    36    1
    26    15    16    2
    27    15    17    1
    28    17    18    1
    29    17    37    1
    30    17    38    1
    31    18    19    1
    32    18    39    1
    33    18    40    1
    34    19    20   am
    35    19    41    1
    36    20    21    2
    37    20    22    1
    38    22    26    1
    39    22    23    2
    40    23    24    1
    41    23    42    1
    42    24    25    1
    43    25    26    2
    44    25    43    1
    45    26    44    1
@<TRIPOS>SUBSTRUCTURE
     1 ZINC000015179664        1 TEMP              0 ****  ****    0 ROOT


##########                                Name:    ZINC000888733009
##########                DOCK_Rotatable_Bonds:                   6
##########                         Heavy_Atoms:                  25
##########                    Molecular_Weight:             360.434
##########                DOCK_Rotatable_Bonds:                   6
##########                       Formal_Charge:        -1.02073e-06
##########                     HBond_Acceptors:                   7
##########                        HBond_Donors:                   2
##########                         Heavy_Atoms:                  25
##########                          Grid_Score:          -28.067818
##########                     Grid_vdw_energy:          -27.004023
##########                      Grid_es_energy:           -1.063794
##########           Internal_energy_repulsive:           12.836466

@<TRIPOS>MOLECULE
ZINC000888733009
 45 48 1 0 0
SMALL
USER_CHARGES


@<TRIPOS>ATOM
      1 C1        -11.1117    1.5463   65.5917 C.3     1  ZINC000888733009   -0.1500
      2 C2        -10.0096    1.6122   64.5324 C.3     1  ZINC000888733009    0.0700
      3 H3         -9.4529    2.5449   64.6228 H       1  ZINC000888733009    0.0700
      4 C4        -10.6169    1.4829   63.1148 C.3     1  ZINC000888733009   -0.1300
      5 C5         -9.5816    0.6447   62.3529 C.3     1  ZINC000888733009   -0.1100
      6 C6        -10.1298   -0.5631   61.5973 C.3     1  ZINC000888733009   -0.1300
      7 C7         -9.0939   -0.2391   60.5051 C.3     1  ZINC000888733009    0.1200
      8 N8         -9.6110   -0.3922   59.1430 N.am    1  ZINC000888733009   -0.7100
      9 C9         -9.0176    0.2545   58.1202 C.2     1  ZINC000888733009    0.5900
     10 O10        -8.0512    0.9646   58.3280 O.2     1  ZINC000888733009   -0.5600
     11 C11        -9.5362    0.1027   56.7575 C.2     1  ZINC000888733009   -0.2400
     12 C12       -10.7660   -0.4306   56.4686 C.2     1  ZINC000888733009    0.0800
     13 N13       -11.6677   -0.8892   57.4147 N.am    1  ZINC000888733009   -0.6100
     14 C14       -12.2091   -2.1172   57.2902 C.2     1  ZINC000888733009    0.6000
     15 O15       -11.9045   -2.8237   56.3472 O.2     1  ZINC000888733009   -0.4900
     16 C16       -13.1647   -2.6018   58.2905 C.2     1  ZINC000888733009   -0.0900
     17 C17       -13.2932   -2.1379   59.5687 C.2     1  ZINC000888733009   -0.1000
     18 C18       -14.3224   -2.8819   60.1664 C.2     1  ZINC000888733009   -0.2300
     19 C19       -14.7715   -3.7562   59.2388 C.2     1  ZINC000888733009    0.0100
     20 O20       -14.0755   -3.5804   58.1082 O.3     1  ZINC000888733009   -0.1600
     21 S21       -11.0330   -0.4512   54.7853 S.3     1  ZINC000888733009    0.3000
     22 C22        -9.4682    0.2686   54.4499 C.2     1  ZINC000888733009   -0.2800
     23 C23        -8.8077    0.5048   55.5743 C.2     1  ZINC000888733009   -0.0900
     24 C24        -9.1196    1.2140   61.0140 C.3     1  ZINC000888733009   -0.1400
     25 C25        -8.4737    0.3492   63.3725 C.3     1  ZINC000888733009    0.0700
     26 O26        -9.1197    0.4808   64.6616 O.3     1  ZINC000888733009   -0.3700
     27 H27       -10.6659    1.6115   66.5842 H       1  ZINC000888733009    0.0600
     28 H28       -11.8032    2.3765   65.4486 H       1  ZINC000888733009    0.0700
     29 H29       -11.6509    0.6038   65.4968 H       1  ZINC000888733009    0.0600
     30 H30       -11.5754    0.9652   63.1541 H       1  ZINC000888733009    0.0800
     31 H31       -10.7289    2.4647   62.6548 H       1  ZINC000888733009    0.0800
     32 H32        -9.9514   -1.5128   62.1017 H       1  ZINC000888733009    0.0800
     33 H33       -11.1627   -0.4429   61.2704 H       1  ZINC000888733009    0.0900
     34 H34        -8.1354   -0.7369   60.6519 H       1  ZINC000888733009    0.1200
     35 H35       -10.3804   -0.9591   58.9772 H       1  ZINC000888733009    0.4000
     36 H36       -11.9096   -0.3265   58.1669 H       1  ZINC000888733009    0.4400
     37 H37       -12.7147   -1.3514   60.0302 H       1  ZINC000888733009    0.1700
     38 H38       -14.6868   -2.7758   61.1775 H       1  ZINC000888733009    0.1600
     39 H39       -15.5643   -4.4751   59.3840 H       1  ZINC000888733009    0.2200
     40 H40        -9.0958    0.4927   53.4613 H       1  ZINC000888733009    0.1700
     41 H41        -7.8221    0.9454   55.6038 H       1  ZINC000888733009    0.1500
     42 H42        -9.8668    1.8368   60.5222 H       1  ZINC000888733009    0.0900
     43 H43        -8.1357    1.6815   61.0533 H       1  ZINC000888733009    0.0800
     44 H44        -8.0937   -0.6636   63.2385 H       1  ZINC000888733009    0.0900
     45 H45        -7.6661    1.0751   63.2778 H       1  ZINC000888733009    0.0700
@<TRIPOS>BOND
     1     1     2    1
     2     1    27    1
     3     1    28    1
     4     1    29    1
     5     2     3    1
     6     2    26    1
     7     2     4    1
     8     4     5    1
     9     4    30    1
    10     4    31    1
    11     5    24    1
    12     5     6    1
    13     5    25    1
    14     6     7    1
    15     6    32    1
    16     6    33    1
    17     7     8    1
    18     7    24    1
    19     7    34    1
    20     8     9   am
    21     8    35    1
    22     9    10    2
    23     9    11    1
    24    11    23    1
    25    11    12    2
    26    12    13    1
    27    12    21    1
    28    13    14   am
    29    13    36    1
    30    14    15    2
    31    14    16    1
    32    16    20    1
    33    16    17    2
    34    17    18    1
    35    17    37    1
    36    18    19    2
    37    18    38    1
    38    19    20    1
    39    19    39    1
    40    21    22    1
    41    22    23    2
    42    22    40    1
    43    23    41    1
    44    24    42    1
    45    24    43    1
    46    25    26    1
    47    25    44    1
    48    25    45    1
@<TRIPOS>SUBSTRUCTURE
     1 ZINC000888733009        1 TEMP              0 ****  ****    0 ROOT


##########                                Name:    ZINC000939075213
##########                DOCK_Rotatable_Bonds:                   7
##########                         Heavy_Atoms:                  24
##########                    Molecular_Weight:             327.426
##########                DOCK_Rotatable_Bonds:                   7
##########                       Formal_Charge:          -0.0200002
##########                     HBond_Acceptors:                   5
##########                        HBond_Donors:                   2
##########                         Heavy_Atoms:                  24
##########                          Grid_Score:          -28.066776
##########                     Grid_vdw_energy:          -25.837828
##########                      Grid_es_energy:           -2.228949
##########           Internal_energy_repulsive:            8.231090

@<TRIPOS>MOLECULE
ZINC000939075213
 49 51 1 0 0
SMALL
USER_CHARGES


@<TRIPOS>ATOM
      1 C1        -11.1755   -0.2983   54.6881 C.3     1  ZINC000939075213   -0.1400
      2 C2        -10.2272   -0.5353   55.8651 C.3     1  ZINC000939075213   -0.1100
      3 H3         -9.2953   -0.9894   55.5281 H       1  ZINC000939075213    0.0900
      4 C4        -10.9035   -1.4007   56.9574 C.3     1  ZINC000939075213    0.1100
      5 N5        -10.1998   -1.0516   58.2049 N.am    1  ZINC000939075213   -0.6200
      6 C6        -10.1056   -1.8333   59.2988 C.2     1  ZINC000939075213    0.5600
      7 O7        -10.6310   -2.9319   59.3093 O.2     1  ZINC000939075213   -0.5400
      8 C8         -9.3962   -1.3774   60.4354 C.2     1  ZINC000939075213   -0.2600
      9 C9        -10.0525   -0.7282   61.4288 C.2     1  ZINC000939075213    0.0400
     10 C10        -9.3426   -0.2717   62.5667 C.2     1  ZINC000939075213    0.0000
     11 C11        -9.8780    0.4035   63.6481 C.2     1  ZINC000939075213   -0.1500
     12 C12        -8.8270    0.6588   64.5339 C.2     1  ZINC000939075213   -0.2200
     13 C13        -7.6937    0.1486   63.9940 C.2     1  ZINC000939075213    0.0200
     14 N14        -7.9943   -0.4246   62.8007 N.pl3   1  ZINC000939075213   -0.5000
     15 C15        -9.6168    0.2901   58.0578 C.3     1  ZINC000939075213    0.0900
     16 C16        -9.9562    0.7842   56.6352 C.3     1  ZINC000939075213    0.1400
     17 H17       -10.8467    1.4127   56.6475 H       1  ZINC000939075213    0.1100
     18 N18        -8.8223    1.5065   56.0531 N.am    1  ZINC000939075213   -0.7200
     19 C19        -9.0126    2.7131   55.4837 C.2     1  ZINC000939075213    0.5300
     20 O20       -10.1229    3.2004   55.4519 O.2     1  ZINC000939075213   -0.5300
     21 C21        -7.8459    3.4569   54.8866 C.3     1  ZINC000939075213   -0.0600
     22 C22        -6.8713    3.8875   55.9846 C.3     1  ZINC000939075213   -0.1300
     23 C23        -7.1423    2.5974   53.8622 C.2     1  ZINC000939075213   -0.1700
     24 C24        -6.8711    3.2795   52.7829 C.2     1  ZINC000939075213   -0.1400
     25 C25        -7.3486    4.7076   52.9075 C.3     1  ZINC000939075213   -0.1100
     26 C26        -8.3413    4.6882   54.0930 C.3     1  ZINC000939075213   -0.1100
     27 H27       -10.7061    0.3781   53.9737 H       1  ZINC000939075213    0.0600
     28 H28       -11.3931   -1.2483   54.1998 H       1  ZINC000939075213    0.0700
     29 H29       -12.1028    0.1440   55.0519 H       1  ZINC000939075213    0.0600
     30 H30       -11.9619   -1.1526   57.0367 H       1  ZINC000939075213    0.0700
     31 H31       -10.7770   -2.4601   56.7342 H       1  ZINC000939075213    0.0800
     32 H32        -8.3323   -1.5466   60.5116 H       1  ZINC000939075213    0.1300
     33 H33       -11.1165   -0.5591   61.3526 H       1  ZINC000939075213    0.1500
     34 H34       -10.9128    0.6816   63.7828 H       1  ZINC000939075213    0.1400
     35 H35        -8.9047    1.1719   65.4810 H       1  ZINC000939075213    0.1400
     36 H36        -6.7118    0.1884   64.4419 H       1  ZINC000939075213    0.1600
     37 H37        -7.3634   -0.8635   62.2089 H       1  ZINC000939075213    0.4100
     38 H38       -10.0478    0.9646   58.7976 H       1  ZINC000939075213    0.0800
     39 H39        -8.5353    0.2402   58.1840 H       1  ZINC000939075213    0.0700
     40 H40        -7.9346    1.1164   56.0776 H       1  ZINC000939075213    0.4000
     41 H41        -6.5103    3.0068   56.5158 H       1  ZINC000939075213    0.0600
     42 H42        -6.0279    4.4126   55.5364 H       1  ZINC000939075213    0.0700
     43 H43        -7.3815    4.5497   56.6841 H       1  ZINC000939075213    0.0600
     44 H44        -6.8959    1.5556   54.0046 H       1  ZINC000939075213    0.1300
     45 H45        -6.3707    2.8762   51.9150 H       1  ZINC000939075213    0.1300
     46 H46        -6.5110    5.3706   53.1245 H       1  ZINC000939075213    0.0800
     47 H47        -7.8543    5.0200   51.9939 H       1  ZINC000939075213    0.0800
     48 H48        -9.3640    4.5436   53.7445 H       1  ZINC000939075213    0.0900
     49 H49        -8.2574    5.5973   54.6884 H       1  ZINC000939075213    0.0800
@<TRIPOS>BOND
     1     1     2    1
     2     1    27    1
     3     1    28    1
     4     1    29    1
     5     2     3    1
     6     2    16    1
     7     2     4    1
     8     4     5    1
     9     4    30    1
    10     4    31    1
    11     5     6   am
    12     5    15    1
    13     6     7    2
    14     6     8    1
    15     8     9    2
    16     8    32    1
    17     9    10    1
    18     9    33    1
    19    10    14    1
    20    10    11    2
    21    11    12    1
    22    11    34    1
    23    12    13    2
    24    12    35    1
    25    13    14    1
    26    13    36    1
    27    14    37    1
    28    15    16    1
    29    15    38    1
    30    15    39    1
    31    16    17    1
    32    16    18    1
    33    18    19   am
    34    18    40    1
    35    19    20    2
    36    19    21    1
    37    21    26    1
    38    21    22    1
    39    21    23    1
    40    22    41    1
    41    22    42    1
    42    22    43    1
    43    23    24    2
    44    23    44    1
    45    24    25    1
    46    24    45    1
    47    25    26    1
    48    25    46    1
    49    25    47    1
    50    26    48    1
    51    26    49    1
@<TRIPOS>SUBSTRUCTURE
     1 ZINC000939075213        1 TEMP              0 ****  ****    0 ROOT


##########                                Name:    ZINC000191003171
##########                DOCK_Rotatable_Bonds:                   6
##########                         Heavy_Atoms:                  26
##########                    Molecular_Weight:             389.414
##########                DOCK_Rotatable_Bonds:                   6
##########                       Formal_Charge:          -0.0200002
##########                     HBond_Acceptors:                   8
##########                        HBond_Donors:                   1
##########                         Heavy_Atoms:                  26
##########                          Grid_Score:          -28.049868
##########                     Grid_vdw_energy:          -25.727736
##########                      Grid_es_energy:           -2.322132
##########           Internal_energy_repulsive:           17.052275

@<TRIPOS>MOLECULE
ZINC000191003171
 45 46 1 0 0
SMALL
USER_CHARGES


@<TRIPOS>ATOM
      1 C1        -13.6994   -2.6920   60.5796 C.3     1  ZINC000191003171   -0.1200
      2 C2        -13.2591   -2.1164   59.2582 C.ar    1  ZINC000191003171   -0.0800
      3 C3        -14.1196   -2.1315   58.1768 C.ar    1  ZINC000191003171   -0.0700
      4 C4        -13.7156   -1.6034   56.9645 C.ar    1  ZINC000191003171   -0.1800
      5 C5        -14.6537   -1.6202   55.7853 C.3     1  ZINC000191003171    0.5100
      6 F6        -15.5310   -0.5338   55.8717 F       1  ZINC000191003171   -0.1800
      7 F7        -13.9152   -1.5300   54.6006 F       1  ZINC000191003171   -0.1800
      8 F8        -15.3859   -2.8124   55.7888 F       1  ZINC000191003171   -0.1800
      9 C9        -12.4516   -1.0598   56.8343 C.ar    1  ZINC000191003171   -0.0800
     10 C10       -11.5909   -1.0444   57.9163 C.ar    1  ZINC000191003171   -0.1000
     11 C11       -11.9963   -1.5684   59.1293 C.ar    1  ZINC000191003171   -0.0500
     12 C12       -11.0582   -1.5516   60.3086 C.3     1  ZINC000191003171    0.0900
     13 N13        -9.7686   -0.9787   59.9004 N.3     1  ZINC000191003171   -0.6800
     14 C14        -9.6693    0.4318   60.2988 C.3     1  ZINC000191003171    0.1200
     15 H15       -10.5467    0.9723   59.9437 H       1  ZINC000191003171    0.0600
     16 C16        -8.4092    1.0471   59.6869 C.3     1  ZINC000191003171   -0.1400
     17 C17        -9.5956    0.5254   61.8010 C.ar    1  ZINC000191003171   -0.0100
     18 C18        -8.5912   -0.1326   62.4858 C.ar    1  ZINC000191003171   -0.1300
     19 C19        -8.5223   -0.0475   63.8641 C.ar    1  ZINC000191003171    0.0100
     20 C20        -9.4576    0.6955   64.5586 C.ar    1  ZINC000191003171   -0.7000
     21 S21        -9.3693    0.8036   66.3151 S.o2    1  ZINC000191003171    2.5000
     22 C22        -8.8374    2.5077   66.6376 C.3     1  ZINC000191003171   -0.6500
     23 O23       -10.7094    0.6096   66.7459 O.2     1  ZINC000191003171   -0.9300
     24 O24        -8.3450   -0.1144   66.6717 O.2     1  ZINC000191003171   -0.9300
     25 C25       -10.4639    1.3556   63.8737 C.ar    1  ZINC000191003171    0.1900
     26 F26       -11.3789    2.0824   64.5517 F       1  ZINC000191003171   -0.1200
     27 C27       -10.5288    1.2740   62.4932 C.ar    1  ZINC000191003171   -0.1700
     28 H28       -14.1757   -1.9128   61.1746 H       1  ZINC000191003171    0.0800
     29 H29       -14.4090   -3.5008   60.4053 H       1  ZINC000191003171    0.0800
     30 H30       -12.8320   -3.0786   61.1146 H       1  ZINC000191003171    0.0600
     31 H31       -15.1075   -2.5558   58.2786 H       1  ZINC000191003171    0.1400
     32 H32       -12.1360   -0.6474   55.8875 H       1  ZINC000191003171    0.1400
     33 H33       -10.6031   -0.6199   57.8145 H       1  ZINC000191003171    0.1400
     34 H34       -11.4884   -0.9464   61.1065 H       1  ZINC000191003171    0.0900
     35 H35       -10.9064   -2.5699   60.6666 H       1  ZINC000191003171    0.0500
     36 H36        -9.0001   -1.5150   60.2744 H       1  ZINC000191003171    0.3500
     37 H37        -8.3355    2.0936   59.9825 H       1  ZINC000191003171    0.0600
     38 H38        -7.5317    0.5065   60.0420 H       1  ZINC000191003171    0.0700
     39 H39        -8.4626    0.9793   58.6003 H       1  ZINC000191003171    0.0600
     40 H40        -7.8600   -0.7139   61.9438 H       1  ZINC000191003171    0.1500
     41 H41        -7.7373   -0.5624   64.3981 H       1  ZINC000191003171    0.1600
     42 H42        -9.5693    3.2013   66.2234 H       1  ZINC000191003171    0.1300
     43 H43        -8.7555    2.6654   67.7129 H       1  ZINC000191003171    0.1400
     44 H44        -7.8681    2.6804   66.1700 H       1  ZINC000191003171    0.1300
     45 H45       -11.3130    1.7887   61.9580 H       1  ZINC000191003171    0.1500
@<TRIPOS>BOND
     1     1     2    1
     2     1    28    1
     3     1    29    1
     4     1    30    1
     5     2    11   ar
     6     2     3   ar
     7     3     4   ar
     8     3    31    1
     9     4     5    1
    10     4     9   ar
    11     5     6    1
    12     5     7    1
    13     5     8    1
    14     9    10   ar
    15     9    32    1
    16    10    11   ar
    17    10    33    1
    18    11    12    1
    19    12    13    1
    20    12    34    1
    21    12    35    1
    22    13    14    1
    23    13    36    1
    24    14    15    1
    25    14    16    1
    26    14    17    1
    27    16    37    1
    28    16    38    1
    29    16    39    1
    30    17    27   ar
    31    17    18   ar
    32    18    19   ar
    33    18    40    1
    34    19    20   ar
    35    19    41    1
    36    20    21    1
    37    20    25   ar
    38    21    22    1
    39    21    23    2
    40    21    24    2
    41    22    42    1
    42    22    43    1
    43    22    44    1
    44    25    26    1
    45    25    27   ar
    46    27    45    1
@<TRIPOS>SUBSTRUCTURE
     1 ZINC000191003171        1 TEMP              0 ****  ****    0 ROOT


##########                                Name:    ZINC000518234532
##########                DOCK_Rotatable_Bonds:                   5
##########                         Heavy_Atoms:                  25
##########                    Molecular_Weight:             408.267
##########                DOCK_Rotatable_Bonds:                   5
##########                       Formal_Charge:         -0.00999981
##########                     HBond_Acceptors:                   5
##########                        HBond_Donors:                   1
##########                         Heavy_Atoms:                  25
##########                          Grid_Score:          -28.047464
##########                     Grid_vdw_energy:          -28.623434
##########                      Grid_es_energy:            0.575970
##########           Internal_energy_repulsive:           18.651079

@<TRIPOS>MOLECULE
ZINC000518234532
 44 46 1 0 0
SMALL
USER_CHARGES


@<TRIPOS>ATOM
      1 C1        -10.3630    2.7900   58.4455 C.3     1  ZINC000518234532   -0.1600
      2 C2         -8.9832    2.1289   58.4375 C.3     1  ZINC000518234532    0.1800
      3 H3         -8.2369    2.8414   58.7889 H       1  ZINC000518234532    0.1100
      4 N4         -8.9965    0.9601   59.3206 N.am    1  ZINC000518234532   -0.7300
      5 C5         -8.7058    1.1008   60.6292 C.2     1  ZINC000518234532    0.5200
      6 O6         -8.4346    2.1954   61.0757 O.2     1  ZINC000518234532   -0.5200
      7 C7         -8.7178   -0.1017   61.5373 C.3     1  ZINC000518234532   -0.0700
      8 H8         -7.7873   -0.6567   61.4175 H       1  ZINC000518234532    0.1100
      9 C9         -9.8996   -1.0030   61.1745 C.3     1  ZINC000518234532   -0.1400
     10 C10        -8.8520    0.3508   62.9684 C.ar    1  ZINC000518234532   -0.1000
     11 C11        -7.9186   -0.0429   63.9082 C.ar    1  ZINC000518234532   -0.0600
     12 C12        -8.0415    0.3722   65.2214 C.ar    1  ZINC000518234532   -0.1300
     13 C13        -9.0982    1.1808   65.5958 C.ar    1  ZINC000518234532   -0.0900
     14 C14       -10.0334    1.5754   64.6576 C.ar    1  ZINC000518234532   -0.1600
     15 C15        -9.9076    1.1659   63.3411 C.ar    1  ZINC000518234532    0.1000
     16 F16       -10.8211    1.5510   62.4232 F       1  ZINC000518234532   -0.1400
     17 C17        -8.6423    1.6950   57.0352 C.ar    1  ZINC000518234532   -0.0600
     18 C18        -9.2760    0.6004   56.4784 C.ar    1  ZINC000518234532   -0.1100
     19 C19        -8.9649    0.1992   55.1877 C.ar    1  ZINC000518234532    0.0800
     20 C20        -8.0161    0.9020   54.4549 C.ar    1  ZINC000518234532    0.0600
     21 C21        -7.3824    1.9991   55.0192 C.ar    1  ZINC000518234532   -0.0800
     22 C22        -7.6996    2.3965   56.3051 C.ar    1  ZINC000518234532   -0.0800
     23 Br23       -6.8347    3.8933   57.0712 Br      1  ZINC000518234532   -0.0300
     24 O24        -7.7018    0.5297   53.1840 O.3     1  ZINC000518234532   -0.3000
     25 C25        -8.0826   -0.7923   52.7877 C.3     1  ZINC000518234532    0.0200
     26 C26        -9.5326   -1.0282   53.2317 C.3     1  ZINC000518234532    0.0200
     27 O27        -9.5948   -0.8836   54.6547 O.3     1  ZINC000518234532   -0.3000
     28 H28       -10.6096    3.1038   59.4599 H       1  ZINC000518234532    0.0700
     29 H29       -10.3530    3.6595   57.7884 H       1  ZINC000518234532    0.0700
     30 H30       -11.1093    2.0776   58.0941 H       1  ZINC000518234532    0.0600
     31 H31        -9.2146    0.0849   58.9637 H       1  ZINC000518234532    0.4000
     32 H32        -9.8026   -1.3305   60.1393 H       1  ZINC000518234532    0.0700
     33 H33        -9.9083   -1.8729   61.8313 H       1  ZINC000518234532    0.0700
     34 H34       -10.8301   -0.4481   61.2943 H       1  ZINC000518234532    0.0700
     35 H35        -7.0929   -0.6752   63.6170 H       1  ZINC000518234532    0.1300
     36 H36        -7.3115    0.0640   65.9552 H       1  ZINC000518234532    0.1300
     37 H37        -9.1934    1.5041   66.6219 H       1  ZINC000518234532    0.1300
     38 H38       -10.8593    2.2066   64.9505 H       1  ZINC000518234532    0.1400
     39 H39       -10.0142    0.0565   57.0491 H       1  ZINC000518234532    0.1400
     40 H40        -6.6430    2.5456   54.4527 H       1  ZINC000518234532    0.1500
     41 H41        -8.0100   -0.8865   51.7041 H       1  ZINC000518234532    0.1300
     42 H42        -7.4286   -1.5219   53.2652 H       1  ZINC000518234532    0.0800
     43 H43       -10.1858   -0.2947   52.7589 H       1  ZINC000518234532    0.0800
     44 H44        -9.8441   -2.0340   52.9504 H       1  ZINC000518234532    0.1300
@<TRIPOS>BOND
     1     1     2    1
     2     1    28    1
     3     1    29    1
     4     1    30    1
     5     2     3    1
     6     2     4    1
     7     2    17    1
     8     4     5   am
     9     4    31    1
    10     5     6    2
    11     5     7    1
    12     7     8    1
    13     7     9    1
    14     7    10    1
    15     9    32    1
    16     9    33    1
    17     9    34    1
    18    10    15   ar
    19    10    11   ar
    20    11    12   ar
    21    11    35    1
    22    12    13   ar
    23    12    36    1
    24    13    14   ar
    25    13    37    1
    26    14    15   ar
    27    14    38    1
    28    15    16    1
    29    17    22   ar
    30    17    18   ar
    31    18    19   ar
    32    18    39    1
    33    19    27    1
    34    19    20   ar
    35    20    21   ar
    36    20    24    1
    37    21    22   ar
    38    21    40    1
    39    22    23    1
    40    24    25    1
    41    25    26    1
    42    25    41    1
    43    25    42    1
    44    26    27    1
    45    26    43    1
    46    26    44    1
@<TRIPOS>SUBSTRUCTURE
     1 ZINC000518234532        1 TEMP              0 ****  ****    0 ROOT


##########                                Name:    ZINC000326056918
##########                DOCK_Rotatable_Bonds:                   6
##########                         Heavy_Atoms:                  24
##########                    Molecular_Weight:             408.326
##########                DOCK_Rotatable_Bonds:                   6
##########                       Formal_Charge:         -0.00999978
##########                     HBond_Acceptors:                   9
##########                        HBond_Donors:                   0
##########                         Heavy_Atoms:                  24
##########                          Grid_Score:          -28.035654
##########                     Grid_vdw_energy:          -28.432774
##########                      Grid_es_energy:            0.397120
##########           Internal_energy_repulsive:           36.931049

@<TRIPOS>MOLECULE
ZINC000326056918
 39 40 1 0 0
SMALL
USER_CHARGES


@<TRIPOS>ATOM
      1 C1         -9.2658   -0.4032   66.4476 C.3     1  ZINC000326056918    0.0400
      2 O2         -8.2743   -0.6725   65.4217 O.3     1  ZINC000326056918   -0.3500
      3 C3         -8.3734    0.0306   64.2747 C.2     1  ZINC000326056918    0.5000
      4 O4         -7.5720   -0.1520   63.3782 O.2     1  ZINC000326056918   -0.4300
      5 C5         -9.4456    1.0135   64.1090 C.2     1  ZINC000326056918   -0.1600
      6 C6        -10.3938    0.9949   63.1239 C.2     1  ZINC000326056918   -0.6200
      7 S7        -10.4692   -0.2461   61.8752 S.o2    1  ZINC000326056918    2.6900
      8 O8         -9.8903   -1.4160   62.4368 O.2     1  ZINC000326056918   -0.9100
      9 O9        -11.7891   -0.2073   61.3502 O.2     1  ZINC000326056918   -0.9400
     10 N10        -9.4638    0.2307   60.6488 N.am    1  ZINC000326056918   -0.9900
     11 C11        -8.3322   -0.6140   60.2590 C.3     1  ZINC000326056918    0.0900
     12 C12        -9.7060    1.4974   59.9536 C.3     1  ZINC000326056918    0.1500
     13 C13        -9.1059    1.4352   58.5727 C.ar    1  ZINC000326056918   -0.0900
     14 C14        -7.8917    2.0444   58.3191 C.ar    1  ZINC000326056918   -0.0800
     15 C15        -7.3406    1.9882   57.0525 C.ar    1  ZINC000326056918   -0.1100
     16 C16        -8.0043    1.3217   56.0381 C.ar    1  ZINC000326056918   -0.0200
     17 Cl17       -7.3120    1.2508   54.4478 Cl      1  ZINC000326056918   -0.0600
     18 C18        -9.2197    0.7112   56.2915 C.ar    1  ZINC000326056918   -0.1100
     19 C19        -9.7679    0.7633   57.5602 C.ar    1  ZINC000326056918   -0.0300
     20 Cl20      -11.2927   -0.0029   57.8793 Cl      1  ZINC000326056918   -0.0100
     21 C21       -11.2824    2.0400   63.2051 C.2     1  ZINC000326056918   -0.0400
     22 C22       -12.4114    2.2192   62.2233 C.3     1  ZINC000326056918   -0.1100
     23 C23       -11.0720    2.8867   64.2202 C.2     1  ZINC000326056918   -0.2600
     24 S24        -9.7253    2.4032   65.1495 S.3     1  ZINC000326056918    0.3100
     25 H25        -9.0717   -1.0340   67.3151 H       1  ZINC000326056918    0.1100
     26 H26        -9.2099    0.6451   66.7410 H       1  ZINC000326056918    0.0700
     27 H27       -10.2605   -0.6186   66.0572 H       1  ZINC000326056918    0.0700
     28 H28        -8.6700   -1.3693   59.5494 H       1  ZINC000326056918    0.0600
     29 H29        -7.5619    0.0018   59.7949 H       1  ZINC000326056918    0.0700
     30 H30        -7.9226   -1.1033   61.1428 H       1  ZINC000326056918    0.0900
     31 H31       -10.7795    1.6696   59.8758 H       1  ZINC000326056918    0.1100
     32 H32        -9.2468    2.3124   60.5130 H       1  ZINC000326056918    0.0900
     33 H33        -7.3731    2.5650   59.1107 H       1  ZINC000326056918    0.1400
     34 H34        -6.3920    2.4652   56.8547 H       1  ZINC000326056918    0.1400
     35 H35        -9.7382    0.1906   55.4999 H       1  ZINC000326056918    0.1500
     36 H36       -13.2570    1.6011   62.5251 H       1  ZINC000326056918    0.0900
     37 H37       -12.7147    3.2661   62.2056 H       1  ZINC000326056918    0.0700
     38 H38       -12.0794    1.9203   61.2290 H       1  ZINC000326056918    0.0900
     39 H39       -11.6766    3.7577   64.4258 H       1  ZINC000326056918    0.1800
@<TRIPOS>BOND
     1     1     2    1
     2     1    25    1
     3     1    26    1
     4     1    27    1
     5     2     3    1
     6     3     4    2
     7     3     5    1
     8     5    24    1
     9     5     6    2
    10     6     7    1
    11     6    21    1
    12     7     8    2
    13     7     9    2
    14     7    10   am
    15    10    11    1
    16    10    12    1
    17    11    28    1
    18    11    29    1
    19    11    30    1
    20    12    13    1
    21    12    31    1
    22    12    32    1
    23    13    19   ar
    24    13    14   ar
    25    14    15   ar
    26    14    33    1
    27    15    16   ar
    28    15    34    1
    29    16    17    1
    30    16    18   ar
    31    18    19   ar
    32    18    35    1
    33    19    20    1
    34    21    22    1
    35    21    23    2
    36    22    36    1
    37    22    37    1
    38    22    38    1
    39    23    24    1
    40    23    39    1
@<TRIPOS>SUBSTRUCTURE
     1 ZINC000326056918        1 TEMP              0 ****  ****    0 ROOT


##########                                Name:    ZINC000629379364
##########                DOCK_Rotatable_Bonds:                   5
##########                         Heavy_Atoms:                  23
##########                    Molecular_Weight:             386.261
##########                DOCK_Rotatable_Bonds:                   5
##########                       Formal_Charge:               -0.02
##########                     HBond_Acceptors:                   5
##########                        HBond_Donors:                   1
##########                         Heavy_Atoms:                  23
##########                          Grid_Score:          -28.032230
##########                     Grid_vdw_energy:          -26.472757
##########                      Grid_es_energy:           -1.559473
##########           Internal_energy_repulsive:           26.516006

@<TRIPOS>MOLECULE
ZINC000629379364
 44 46 1 0 0
SMALL
USER_CHARGES


@<TRIPOS>ATOM
      1 O1        -13.9615   -1.6541   60.4957 O.co2   1  ZINC000629379364   -0.6800
      2 C2        -13.6702   -2.3437   59.5334 C.2     1  ZINC000629379364    0.5000
      3 O3        -14.5405   -2.9500   58.9321 O.co2   1  ZINC000629379364   -0.6900
      4 C4        -12.2353   -2.4417   59.0834 C.3     1  ZINC000629379364   -0.1600
      5 H5        -12.0149   -3.4598   58.7621 H       1  ZINC000629379364    0.0800
      6 C6        -11.2951   -2.0378   60.2325 C.3     1  ZINC000629379364   -0.1300
      7 C7         -9.8433   -1.9879   59.7659 C.3     1  ZINC000629379364   -0.0100
      8 N8         -9.6744   -1.1092   58.5925 N.4     1  ZINC000629379364   -0.3700
      9 H9         -8.7063   -1.0988   58.3085 H       1  ZINC000629379364    0.4200
     10 C10       -10.1121    0.2537   58.9225 C.3     1  ZINC000629379364   -0.0200
     11 C11        -8.8872    1.1481   59.1235 C.3     1  ZINC000629379364    0.0300
     12 O12        -8.2467    0.8089   60.3551 O.3     1  ZINC000629379364   -0.3200
     13 C13        -8.9486    1.0317   61.4973 C.ar    1  ZINC000629379364    0.1600
     14 C14       -10.0709    1.8460   61.4749 C.ar    1  ZINC000629379364   -0.2300
     15 C15       -10.7841    2.0714   62.6392 C.ar    1  ZINC000629379364    0.1500
     16 F16       -11.8776    2.8646   62.6186 F       1  ZINC000629379364   -0.1200
     17 C17       -10.3775    1.4839   63.8253 C.ar    1  ZINC000629379364   -0.1600
     18 C18        -9.2577    0.6718   63.8484 C.ar    1  ZINC000629379364   -0.0300
     19 Br19       -8.7051   -0.1292   65.4699 Br      1  ZINC000629379364   -0.0100
     20 C20        -8.5465    0.4399   62.6861 C.ar    1  ZINC000629379364   -0.1300
     21 C21       -10.4975   -1.6484   57.5221 C.3     1  ZINC000629379364   -0.0100
     22 H22       -10.2748   -2.7054   57.3765 H       1  ZINC000629379364    0.1400
     23 C23       -10.4378   -0.9098   56.1809 C.3     1  ZINC000629379364   -0.1300
     24 C24       -11.7706   -1.3193   55.4973 C.3     1  ZINC000629379364   -0.1200
     25 C25       -12.7423   -1.7148   56.6364 C.3     1  ZINC000629379364   -0.1100
     26 C26       -11.9816   -1.4712   57.9427 C.3     1  ZINC000629379364   -0.0700
     27 H27       -12.1296   -0.4430   58.2728 H       1  ZINC000629379364    0.1000
     28 H28       -11.5853   -1.0546   60.6028 H       1  ZINC000629379364    0.0800
     29 H29       -11.3858   -2.7639   61.0404 H       1  ZINC000629379364    0.1100
     30 H30        -9.2211   -1.6164   60.5802 H       1  ZINC000629379364    0.1200
     31 H31        -9.5194   -2.9953   59.5047 H       1  ZINC000629379364    0.1300
     32 H32       -10.7197    0.6474   58.1077 H       1  ZINC000629379364    0.1400
     33 H33       -10.7019    0.2340   59.8389 H       1  ZINC000629379364    0.1700
     34 H34        -8.1901    1.0004   58.2987 H       1  ZINC000629379364    0.1100
     35 H35        -9.2001    2.1919   59.1522 H       1  ZINC000629379364    0.0900
     36 H36       -10.3878    2.3042   60.5496 H       1  ZINC000629379364    0.1500
     37 H37       -10.9349    1.6601   64.7333 H       1  ZINC000629379364    0.1500
     38 H38        -7.6727   -0.1945   62.7052 H       1  ZINC000629379364    0.1500
     39 H39       -10.3996    0.1684   56.3360 H       1  ZINC000629379364    0.0800
     40 H40        -9.5839   -1.2465   55.5931 H       1  ZINC000629379364    0.0900
     41 H41       -12.1762   -0.4785   54.9347 H       1  ZINC000629379364    0.0800
     42 H42       -11.6055   -2.1688   54.8346 H       1  ZINC000629379364    0.0800
     43 H43       -13.6436   -1.1032   56.5930 H       1  ZINC000629379364    0.0900
     44 H44       -12.9987   -2.7718   56.5639 H       1  ZINC000629379364    0.0800
@<TRIPOS>BOND
     1     1     2   ar
     2     2     3   ar
     3     2     4    1
     4     4     5    1
     5     4    26    1
     6     4     6    1
     7     6     7    1
     8     6    28    1
     9     6    29    1
    10     7     8    1
    11     7    30    1
    12     7    31    1
    13     8     9    1
    14     8    10    1
    15     8    21    1
    16    10    11    1
    17    10    32    1
    18    10    33    1
    19    11    12    1
    20    11    34    1
    21    11    35    1
    22    12    13    1
    23    13    20   ar
    24    13    14   ar
    25    14    15   ar
    26    14    36    1
    27    15    16    1
    28    15    17   ar
    29    17    18   ar
    30    17    37    1
    31    18    19    1
    32    18    20   ar
    33    20    38    1
    34    21    22    1
    35    21    26    1
    36    21    23    1
    37    23    24    1
    38    23    39    1
    39    23    40    1
    40    24    25    1
    41    24    41    1
    42    24    42    1
    43    25    26    1
    44    25    43    1
    45    25    44    1
    46    26    27    1
@<TRIPOS>SUBSTRUCTURE
     1 ZINC000629379364        1 TEMP              0 ****  ****    0 ROOT


##########                                Name:    ZINC001272744746
##########                DOCK_Rotatable_Bonds:                   6
##########                         Heavy_Atoms:                  25
##########                    Molecular_Weight:             348.417
##########                DOCK_Rotatable_Bonds:                   6
##########                       Formal_Charge:           0.0299999
##########                     HBond_Acceptors:                   6
##########                        HBond_Donors:                   1
##########                         Heavy_Atoms:                  25
##########                          Grid_Score:          -28.020727
##########                     Grid_vdw_energy:          -26.850765
##########                      Grid_es_energy:           -1.169962
##########           Internal_energy_repulsive:           30.156551

@<TRIPOS>MOLECULE
ZINC001272744746
 50 52 1 0 0
SMALL
USER_CHARGES


@<TRIPOS>ATOM
      1 C1         -6.1331    2.6656   52.7744 C.2     1  ZINC001272744746   -0.1700
      2 C2         -7.2041    1.9523   53.0199 C.2     1  ZINC001272744746   -0.1700
      3 C3         -7.1981    0.9453   54.1409 C.3     1  ZINC001272744746    0.1500
      4 N4         -8.3606    0.0632   54.0111 N.am    1  ZINC001272744746   -0.6100
      5 C5         -9.6318    0.2571   54.7214 C.3     1  ZINC001272744746    0.0700
      6 C6        -10.6521   -0.6213   53.9772 C.3     1  ZINC001272744746    0.1100
      7 C7         -9.7572   -1.6940   53.3299 C.3     1  ZINC001272744746   -0.1500
      8 C8         -8.4030   -1.0253   53.2221 C.2     1  ZINC001272744746    0.5200
      9 O9         -7.4872   -1.4182   52.5308 O.2     1  ZINC001272744746   -0.5200
     10 C10       -11.3758    0.1866   52.9089 C.3     1  ZINC001272744746   -0.1000
     11 C11       -12.2406    1.2584   53.5814 C.3     1  ZINC001272744746   -0.1200
     12 C12       -13.2032    0.5817   54.5614 C.3     1  ZINC001272744746   -0.1200
     13 C13       -12.4016   -0.2101   55.5968 C.3     1  ZINC001272744746    0.0500
     14 N14       -11.5917   -1.2294   54.9143 N.3     1  ZINC001272744746   -0.5100
     15 C15       -10.8908   -2.0812   55.8844 C.3     1  ZINC001272744746    0.0800
     16 C16       -11.5023   -1.8962   57.2493 C.ar    1  ZINC001272744746   -0.0200
     17 C17       -10.9417   -1.0004   58.1402 C.ar    1  ZINC001272744746   -0.1700
     18 C18       -11.5000   -0.8272   59.3953 C.ar    1  ZINC001272744746    0.1200
     19 F19       -10.9504    0.0489   60.2646 F       1  ZINC001272744746   -0.1200
     20 C20       -12.6244   -1.5533   59.7595 C.ar    1  ZINC001272744746    0.0400
     21 O21       -13.1753   -1.3846   60.9920 O.3     1  ZINC001272744746   -0.4700
     22 C22       -13.1876   -2.4540   58.8615 C.ar    1  ZINC001272744746    0.1300
     23 O23       -14.2901   -3.1679   59.2138 O.3     1  ZINC001272744746   -0.3000
     24 C24       -14.9314   -3.9220   58.1832 C.3     1  ZINC001272744746    0.0200
     25 C25       -12.6261   -2.6187   57.6052 C.ar    1  ZINC001272744746   -0.1800
     26 H26        -5.2458    2.5321   53.3755 H       1  ZINC001272744746    0.1000
     27 H27        -6.1359    3.3842   51.9681 H       1  ZINC001272744746    0.1000
     28 H28        -8.0913    2.0859   52.4187 H       1  ZINC001272744746    0.1100
     29 H29        -6.2848    0.3524   54.0920 H       1  ZINC001272744746    0.0900
     30 H30        -7.2423    1.4662   55.0975 H       1  ZINC001272744746    0.0800
     31 H31        -9.5388   -0.0674   55.7577 H       1  ZINC001272744746    0.0700
     32 H32        -9.9325    1.3040   54.6784 H       1  ZINC001272744746    0.0900
     33 H33        -9.7013   -2.5785   53.9646 H       1  ZINC001272744746    0.1100
     34 H34       -10.1305   -1.9562   52.3399 H       1  ZINC001272744746    0.1100
     35 H35       -10.6447    0.6653   52.2574 H       1  ZINC001272744746    0.0700
     36 H36       -12.0101   -0.4755   52.3197 H       1  ZINC001272744746    0.0800
     37 H37       -11.6012    1.9565   54.1218 H       1  ZINC001272744746    0.0600
     38 H38       -12.8102    1.7958   52.8233 H       1  ZINC001272744746    0.0700
     39 H39       -13.8004    1.3406   55.0669 H       1  ZINC001272744746    0.0700
     40 H40       -13.8610   -0.0950   54.0159 H       1  ZINC001272744746    0.0700
     41 H41       -11.7466    0.4673   56.1447 H       1  ZINC001272744746    0.0400
     42 H42       -13.0859   -0.6956   56.2924 H       1  ZINC001272744746    0.0900
     43 H43       -10.9820   -3.1250   55.5839 H       1  ZINC001272744746    0.1000
     44 H44        -9.8373   -1.8033   55.9175 H       1  ZINC001272744746    0.0600
     45 H45       -10.0662   -0.4349   57.8571 H       1  ZINC001272744746    0.1400
     46 H46       -12.7237   -0.7266   61.5380 H       1  ZINC001272744746    0.3900
     47 H47       -14.2296   -4.6494   57.7750 H       1  ZINC001272744746    0.0600
     48 H48       -15.7946   -4.4429   58.5975 H       1  ZINC001272744746    0.1100
     49 H49       -15.2590   -3.2491   57.3908 H       1  ZINC001272744746    0.0600
     50 H50       -13.0620   -3.3175   56.9066 H       1  ZINC001272744746    0.1400
@<TRIPOS>BOND
     1     1     2    2
     2     1    26    1
     3     1    27    1
     4     2     3    1
     5     2    28    1
     6     3     4    1
     7     3    29    1
     8     3    30    1
     9     4     8   am
    10     4     5    1
    11     5     6    1
    12     5    31    1
    13     5    32    1
    14     6    14    1
    15     6     7    1
    16     6    10    1
    17     7     8    1
    18     7    33    1
    19     7    34    1
    20     8     9    2
    21    10    11    1
    22    10    35    1
    23    10    36    1
    24    11    12    1
    25    11    37    1
    26    11    38    1
    27    12    13    1
    28    12    39    1
    29    12    40    1
    30    13    14    1
    31    13    41    1
    32    13    42    1
    33    14    15    1
    34    15    16    1
    35    15    43    1
    36    15    44    1
    37    16    25   ar
    38    16    17   ar
    39    17    18   ar
    40    17    45    1
    41    18    19    1
    42    18    20   ar
    43    20    21    1
    44    20    22   ar
    45    21    46    1
    46    22    23    1
    47    22    25   ar
    48    23    24    1
    49    24    47    1
    50    24    48    1
    51    24    49    1
    52    25    50    1
@<TRIPOS>SUBSTRUCTURE
     1 ZINC001272744746        1 TEMP              0 ****  ****    0 ROOT


##########                                Name:    ZINC000549381790
##########                DOCK_Rotatable_Bonds:                   7
##########                         Heavy_Atoms:                  23
##########                    Molecular_Weight:             337.846
##########                DOCK_Rotatable_Bonds:                   7
##########                       Formal_Charge:           0.0300006
##########                     HBond_Acceptors:                   5
##########                        HBond_Donors:                   0
##########                         Heavy_Atoms:                  23
##########                          Grid_Score:          -28.002131
##########                     Grid_vdw_energy:          -27.136909
##########                      Grid_es_energy:           -0.865220
##########           Internal_energy_repulsive:           87.835083

@<TRIPOS>MOLECULE
ZINC000549381790
 47 49 1 0 0
SMALL
USER_CHARGES


@<TRIPOS>ATOM
      1 C1         -9.5326   -1.0703   52.9592 C.3     1  ZINC000549381790   -0.1400
      2 C2         -8.4654   -0.1137   53.4947 C.3     1  ZINC000549381790    0.1500
      3 H3         -7.4935   -0.6072   53.4834 H       1  ZINC000549381790    0.0700
      4 C4         -8.4142    1.1414   52.6180 C.3     1  ZINC000549381790   -0.1300
      5 C5         -7.4462    2.1522   53.2371 C.3     1  ZINC000549381790   -0.1200
      6 C6         -7.9453    2.5539   54.6269 C.3     1  ZINC000549381790   -0.1400
      7 C7         -7.9911    1.3147   55.5264 C.3     1  ZINC000549381790    0.1000
      8 N8         -8.8019    0.2798   54.8697 N.am    1  ZINC000549381790   -0.6100
      9 C9         -9.8372   -0.2935   55.5146 C.2     1  ZINC000549381790    0.5200
     10 O10       -10.4988   -1.1464   54.9616 O.2     1  ZINC000549381790   -0.5000
     11 C11       -10.1729    0.1255   56.9227 C.3     1  ZINC000549381790    0.0400
     12 O12        -9.1167   -0.2679   57.8013 O.3     1  ZINC000549381790   -0.2800
     13 C13        -9.2782    0.0077   59.1231 C.ar    1  ZINC000549381790    0.1100
     14 C14        -9.1970   -1.0124   60.0589 C.ar    1  ZINC000549381790   -0.1700
     15 C15        -9.3606   -0.7329   61.4022 C.ar    1  ZINC000549381790   -0.1600
     16 C16        -9.6066    0.5676   61.8149 C.ar    1  ZINC000549381790    0.1100
     17 O17        -9.7677    0.8426   63.1372 O.3     1  ZINC000549381790   -0.3000
     18 C18        -8.5873    0.8724   63.9420 C.3     1  ZINC000549381790    0.0900
     19 C19        -8.9597    0.6129   65.4032 C.3     1  ZINC000549381790   -0.1600
     20 C20        -8.4449    1.6031   66.4498 C.3     1  ZINC000549381790   -0.1700
     21 C21        -9.9270    1.5927   66.0704 C.3     1  ZINC000549381790   -0.1700
     22 C22        -9.6880    1.5891   60.8784 C.ar    1  ZINC000549381790   -0.0300
     23 Cl23       -9.9955    3.2178   61.3948 Cl      1  ZINC000549381790   -0.0400
     24 C24        -9.5186    1.3101   59.5356 C.ar    1  ZINC000549381790   -0.1000
     25 H25       -10.5164   -0.6129   53.0645 H       1  ZINC000549381790    0.0600
     26 H26        -9.3393   -1.2779   51.9068 H       1  ZINC000549381790    0.0500
     27 H27        -9.5025   -2.0017   53.5247 H       1  ZINC000549381790    0.0800
     28 H28        -8.0707    0.8735   51.6188 H       1  ZINC000549381790    0.0800
     29 H29        -9.4092    1.5820   52.5550 H       1  ZINC000549381790    0.0700
     30 H30        -6.4570    1.7023   53.3224 H       1  ZINC000549381790    0.0700
     31 H31        -7.3891    3.0363   52.6021 H       1  ZINC000549381790    0.0700
     32 H32        -7.2679    3.2912   55.0577 H       1  ZINC000549381790    0.0800
     33 H33        -8.9446    2.9811   54.5451 H       1  ZINC000549381790    0.0700
     34 H34        -6.9799    0.9391   55.6828 H       1  ZINC000549381790    0.0800
     35 H35        -8.4385    1.5757   56.4855 H       1  ZINC000549381790    0.0800
     36 H36       -10.2928    1.2082   56.9608 H       1  ZINC000549381790    0.0900
     37 H37       -11.1012   -0.3539   57.2330 H       1  ZINC000549381790    0.0900
     38 H38        -9.0060   -2.0258   59.7378 H       1  ZINC000549381790    0.1400
     39 H39        -9.2973   -1.5277   62.1307 H       1  ZINC000549381790    0.1400
     40 H40        -7.8954    0.1023   63.6012 H       1  ZINC000549381790    0.0700
     41 H41        -8.1135    1.8504   63.8561 H       1  ZINC000549381790    0.0700
     42 H42        -9.0266   -0.4359   65.6921 H       1  ZINC000549381790    0.1200
     43 H43        -8.1730    1.2057   67.4277 H       1  ZINC000549381790    0.1000
     44 H44        -7.8410    2.4393   66.0975 H       1  ZINC000549381790    0.1000
     45 H45       -10.2983    2.4221   65.4683 H       1  ZINC000549381790    0.1000
     46 H46       -10.6302    1.1884   66.7985 H       1  ZINC000549381790    0.1000
     47 H47        -9.5819    2.1045   58.8067 H       1  ZINC000549381790    0.1500
@<TRIPOS>BOND
     1     1     2    1
     2     1    25    1
     3     1    26    1
     4     1    27    1
     5     2     3    1
     6     2     8    1
     7     2     4    1
     8     4     5    1
     9     4    28    1
    10     4    29    1
    11     5     6    1
    12     5    30    1
    13     5    31    1
    14     6     7    1
    15     6    32    1
    16     6    33    1
    17     7     8    1
    18     7    34    1
    19     7    35    1
    20     8     9   am
    21     9    10    2
    22     9    11    1
    23    11    12    1
    24    11    36    1
    25    11    37    1
    26    12    13    1
    27    13    24   ar
    28    13    14   ar
    29    14    15   ar
    30    14    38    1
    31    15    16   ar
    32    15    39    1
    33    16    17    1
    34    16    22   ar
    35    17    18    1
    36    18    19    1
    37    18    40    1
    38    18    41    1
    39    19    21    1
    40    19    20    1
    41    19    42    1
    42    20    21    1
    43    20    43    1
    44    20    44    1
    45    21    45    1
    46    21    46    1
    47    22    23    1
    48    22    24   ar
    49    24    47    1
@<TRIPOS>SUBSTRUCTURE
     1 ZINC000549381790        1 TEMP              0 ****  ****    0 ROOT


##########                                Name:    ZINC000863208514
##########                DOCK_Rotatable_Bonds:                   6
##########                         Heavy_Atoms:                  19
##########                    Molecular_Weight:             368.657
##########                DOCK_Rotatable_Bonds:                   6
##########                       Formal_Charge:           0.0100005
##########                     HBond_Acceptors:                   7
##########                        HBond_Donors:                   2
##########                         Heavy_Atoms:                  19
##########                          Grid_Score:          -28.000071
##########                     Grid_vdw_energy:          -24.685423
##########                      Grid_es_energy:           -3.314647
##########           Internal_energy_repulsive:           72.966278

@<TRIPOS>MOLECULE
ZINC000863208514
 31 31 1 0 0
SMALL
USER_CHARGES


@<TRIPOS>ATOM
      1 C1         -9.6127    2.5633   64.7052 C.3     1  ZINC000863208514    0.0900
      2 N2         -9.8069    1.3746   65.5391 N.am    1  ZINC000863208514   -0.6100
      3 C3        -10.8670    1.3542   66.5500 C.3     1  ZINC000863208514    0.0700
      4 C4         -9.0101    0.2997   65.3762 C.2     1  ZINC000863208514    0.5100
      5 O5         -9.1718   -0.6850   66.0655 O.2     1  ZINC000863208514   -0.5400
      6 C6         -7.9185    0.3216   64.3375 C.3     1  ZINC000863208514    0.1100
      7 N7         -8.3208    1.1851   63.2245 N.am    1  ZINC000863208514   -0.6600
      8 C8         -9.0793    0.6891   62.2269 C.2     1  ZINC000863208514    0.5600
      9 S9         -9.5511    1.6987   60.9272 S.2     1  ZINC000863208514   -0.6000
     10 N10        -9.4663   -0.6016   62.2524 N.am    1  ZINC000863208514   -0.6300
     11 C11       -10.2545   -1.1170   61.2158 C.ar    1  ZINC000863208514    0.1200
     12 C12       -11.6325   -0.9579   61.2452 C.ar    1  ZINC000863208514   -0.0300
     13 C13       -12.4085   -1.4672   60.2203 C.ar    1  ZINC000863208514   -0.0200
     14 Cl14      -14.1326   -1.2677   60.2565 Cl      1  ZINC000863208514   -0.0300
     15 C15       -11.8120   -2.1356   59.1650 C.ar    1  ZINC000863208514   -0.0600
     16 Br16      -12.8768   -2.8306   57.7653 Br      1  ZINC000863208514   -0.0100
     17 C17       -10.4379   -2.2957   59.1321 C.ar    1  ZINC000863208514   -0.1100
     18 C18        -9.6568   -1.7844   60.1518 C.ar    1  ZINC000863208514    0.1100
     19 F19        -8.3153   -1.9409   60.1195 F       1  ZINC000863208514   -0.1200
     20 H20       -10.3446    3.3230   64.9795 H       1  ZINC000863208514    0.0800
     21 H21        -8.6073    2.9551   64.8593 H       1  ZINC000863208514    0.0700
     22 H22        -9.7417    2.2964   63.6562 H       1  ZINC000863208514    0.0700
     23 H23       -11.7849    0.9688   66.1060 H       1  ZINC000863208514    0.0700
     24 H24       -10.5668    0.7125   67.3783 H       1  ZINC000863208514    0.0800
     25 H25       -11.0380    2.3659   66.9175 H       1  ZINC000863208514    0.0800
     26 H26        -7.0010    0.7065   64.7827 H       1  ZINC000863208514    0.1200
     27 H27        -7.7471   -0.6898   63.9691 H       1  ZINC000863208514    0.1200
     28 H28        -8.0412    2.1137   63.2055 H       1  ZINC000863208514    0.4100
     29 H29        -9.1990   -1.1736   62.9889 H       1  ZINC000863208514    0.4200
     30 H30       -12.0989   -0.4368   62.0683 H       1  ZINC000863208514    0.1800
     31 H31        -9.9750   -2.8177   58.3076 H       1  ZINC000863208514    0.1600
@<TRIPOS>BOND
     1     1     2    1
     2     1    20    1
     3     1    21    1
     4     1    22    1
     5     2     3    1
     6     2     4   am
     7     3    23    1
     8     3    24    1
     9     3    25    1
    10     4     5    2
    11     4     6    1
    12     6     7    1
    13     6    26    1
    14     6    27    1
    15     7     8   am
    16     7    28    1
    17     8     9    2
    18     8    10   am
    19    10    11    1
    20    10    29    1
    21    11    18   ar
    22    11    12   ar
    23    12    13   ar
    24    12    30    1
    25    13    14    1
    26    13    15   ar
    27    15    16    1
    28    15    17   ar
    29    17    18   ar
    30    17    31    1
    31    18    19    1
@<TRIPOS>SUBSTRUCTURE
     1 ZINC000863208514        1 TEMP              0 ****  ****    0 ROOT


##########                                Name:    ZINC000463474628
##########                DOCK_Rotatable_Bonds:                   5
##########                         Heavy_Atoms:                  25
##########                    Molecular_Weight:              407.35
##########                DOCK_Rotatable_Bonds:                   5
##########                       Formal_Charge:           0.0200004
##########                     HBond_Acceptors:                   4
##########                        HBond_Donors:                   0
##########                         Heavy_Atoms:                  25
##########                          Grid_Score:          -27.967831
##########                     Grid_vdw_energy:          -26.482409
##########                      Grid_es_energy:           -1.485423
##########           Internal_energy_repulsive:           71.505081

@<TRIPOS>MOLECULE
ZINC000463474628
 52 54 1 0 0
SMALL
USER_CHARGES


@<TRIPOS>ATOM
      1 C1         -8.2551    0.5133   53.1175 C.3     1  ZINC000463474628   -0.1400
      2 C2         -9.2113   -0.5417   52.5576 C.3     1  ZINC000463474628   -0.1300
      3 C3        -10.6243   -0.2791   53.0822 C.3     1  ZINC000463474628    0.1400
      4 H4        -11.3051   -1.0462   52.7133 H       1  ZINC000463474628    0.0800
      5 C5        -11.1043    1.1138   52.6227 C.3     1  ZINC000463474628   -0.1300
      6 C6        -11.8829    1.6381   53.8580 C.3     1  ZINC000463474628   -0.1300
      7 C7        -11.0464    1.0542   55.0237 C.3     1  ZINC000463474628    0.0900
      8 N8        -10.6200   -0.2796   54.5525 N.am    1  ZINC000463474628   -0.6100
      9 C9        -10.2823   -1.3199   55.3399 C.2     1  ZINC000463474628    0.5300
     10 O10        -9.9460   -2.3734   54.8418 O.2     1  ZINC000463474628   -0.5100
     11 C11       -10.3225   -1.1742   56.8393 C.3     1  ZINC000463474628   -0.1200
     12 H12        -9.8249   -2.0270   57.3012 H       1  ZINC000463474628    0.1000
     13 C13       -11.7782   -1.1169   57.3081 C.3     1  ZINC000463474628   -0.1000
     14 C14       -11.8205   -1.0020   58.8335 C.3     1  ZINC000463474628   -0.1300
     15 C15       -11.1228    0.2923   59.2637 C.3     1  ZINC000463474628    0.0900
     16 N16        -9.7684    0.3110   58.6945 N.am    1  ZINC000463474628   -0.6000
     17 C17        -8.6937    0.5015   59.4853 C.2     1  ZINC000463474628    0.5700
     18 O18        -7.5784    0.5148   59.0021 O.2     1  ZINC000463474628   -0.5200
     19 C19        -8.8714    0.6942   60.9398 C.ar    1  ZINC000463474628   -0.1200
     20 C20        -8.9788   -0.4114   61.7851 C.ar    1  ZINC000463474628   -0.0800
     21 C21        -9.1446   -0.2252   63.1417 C.ar    1  ZINC000463474628   -0.1000
     22 C22        -9.2047    1.0551   63.6654 C.ar    1  ZINC000463474628   -0.0700
     23 Br23       -9.4315    1.3015   65.5264 Br      1  ZINC000463474628   -0.0400
     24 C24        -9.0988    2.1560   62.8317 C.ar    1  ZINC000463474628   -0.0900
     25 C25        -8.9270    1.9827   61.4746 C.ar    1  ZINC000463474628   -0.0300
     26 C26        -8.8121    3.1817   60.5689 C.3     1  ZINC000463474628   -0.1300
     27 C27        -9.6070    0.1176   57.2469 C.3     1  ZINC000463474628    0.1200
     28 H28        -8.3086    1.4135   52.5053 H       1  ZINC000463474628    0.0700
     29 H29        -8.5387    0.7534   54.1422 H       1  ZINC000463474628    0.0600
     30 H30        -7.2369    0.1246   53.1038 H       1  ZINC000463474628    0.0300
     31 H31        -9.2124   -0.4897   51.4688 H       1  ZINC000463474628    0.0600
     32 H32        -8.8847   -1.5324   52.8737 H       1  ZINC000463474628    0.0700
     33 H33       -10.2553    1.7599   52.3992 H       1  ZINC000463474628    0.0800
     34 H34       -11.7635    1.0288   51.7588 H       1  ZINC000463474628    0.0800
     35 H35       -11.8841    2.7278   53.8855 H       1  ZINC000463474628    0.0900
     36 H36       -12.9004    1.2474   53.8732 H       1  ZINC000463474628    0.0800
     37 H37       -10.1787    1.6837   55.2205 H       1  ZINC000463474628    0.0700
     38 H38       -11.6591    0.9602   55.9204 H       1  ZINC000463474628    0.0800
     39 H39       -12.2685   -0.2502   56.8648 H       1  ZINC000463474628    0.0800
     40 H40       -12.2956   -2.0247   56.9979 H       1  ZINC000463474628    0.0700
     41 H41       -12.8576   -0.9847   59.1685 H       1  ZINC000463474628    0.0800
     42 H42       -11.3086   -1.8560   59.2771 H       1  ZINC000463474628    0.0700
     43 H43       -11.6855    1.1503   58.8961 H       1  ZINC000463474628    0.0800
     44 H44       -11.0625    0.3309   60.3514 H       1  ZINC000463474628    0.1000
     45 H45        -8.9324   -1.4106   61.3777 H       1  ZINC000463474628    0.1400
     46 H46        -9.2280   -1.0798   63.7967 H       1  ZINC000463474628    0.1400
     47 H47        -9.1468    3.1523   63.2460 H       1  ZINC000463474628    0.1400
     48 H48        -7.7598    3.4131   60.4040 H       1  ZINC000463474628    0.0700
     49 H49        -9.2900    2.9629   59.6140 H       1  ZINC000463474628    0.0900
     50 H50        -9.3035    4.0366   61.0336 H       1  ZINC000463474628    0.0700
     51 H51        -8.5471    0.0414   57.0043 H       1  ZINC000463474628    0.1000
     52 H52       -10.0462    0.9613   56.7143 H       1  ZINC000463474628    0.0800
@<TRIPOS>BOND
     1     1     2    1
     2     1    28    1
     3     1    29    1
     4     1    30    1
     5     2     3    1
     6     2    31    1
     7     2    32    1
     8     3     4    1
     9     3     8    1
    10     3     5    1
    11     5     6    1
    12     5    33    1
    13     5    34    1
    14     6     7    1
    15     6    35    1
    16     6    36    1
    17     7     8    1
    18     7    37    1
    19     7    38    1
    20     8     9   am
    21     9    10    2
    22     9    11    1
    23    11    12    1
    24    11    27    1
    25    11    13    1
    26    13    14    1
    27    13    39    1
    28    13    40    1
    29    14    15    1
    30    14    41    1
    31    14    42    1
    32    15    16    1
    33    15    43    1
    34    15    44    1
    35    16    17   am
    36    16    27    1
    37    17    18    2
    38    17    19    1
    39    19    25   ar
    40    19    20   ar
    41    20    21   ar
    42    20    45    1
    43    21    22   ar
    44    21    46    1
    45    22    23    1
    46    22    24   ar
    47    24    25   ar
    48    24    47    1
    49    25    26    1
    50    26    48    1
    51    26    49    1
    52    26    50    1
    53    27    51    1
    54    27    52    1
@<TRIPOS>SUBSTRUCTURE
     1 ZINC000463474628        1 TEMP              0 ****  ****    0 ROOT


##########                                Name:    ZINC000894043060
##########                DOCK_Rotatable_Bonds:                  11
##########                         Heavy_Atoms:                  26
##########                    Molecular_Weight:             396.812
##########                DOCK_Rotatable_Bonds:                  11
##########                       Formal_Charge:          -0.0199999
##########                     HBond_Acceptors:                   9
##########                        HBond_Donors:                   2
##########                         Heavy_Atoms:                  26
##########                          Grid_Score:          -27.966839
##########                     Grid_vdw_energy:          -27.078791
##########                      Grid_es_energy:           -0.888048
##########           Internal_energy_repulsive:           12.189961

@<TRIPOS>MOLECULE
ZINC000894043060
 47 47 1 0 0
SMALL
USER_CHARGES


@<TRIPOS>ATOM
      1 C1         -8.7823    2.4023   60.4521 C.3     1  ZINC000894043060   -0.1700
      2 C2         -8.5408    1.0901   59.7032 C.3     1  ZINC000894043060    0.1000
      3 H3         -7.4966    1.0341   59.3957 H       1  ZINC000894043060    0.1100
      4 N4         -9.4019    1.0379   58.5191 N.am    1  ZINC000894043060   -0.7300
      5 C5         -8.9401    1.4734   57.3303 C.2     1  ZINC000894043060    0.5200
      6 O6         -7.8121    1.9099   57.2410 O.2     1  ZINC000894043060   -0.5200
      7 C7         -9.8253    1.4180   56.1119 C.3     1  ZINC000894043060   -0.1400
      8 C8         -9.2060    0.4799   55.0739 C.3     1  ZINC000894043060   -0.0200
      9 C9        -10.3121   -0.3290   54.3933 C.3     1  ZINC000894043060   -0.1400
     10 C10       -10.6223   -1.5503   55.2198 C.2     1  ZINC000894043060    0.5200
     11 O11        -9.8990   -2.5221   55.1610 O.2     1  ZINC000894043060   -0.5200
     12 N12       -11.7036   -1.5627   56.0243 N.am    1  ZINC000894043060   -0.7300
     13 C13       -12.0042   -2.7494   56.8291 C.3     1  ZINC000894043060    0.1000
     14 H14       -11.6029   -3.6344   56.3354 H       1  ZINC000894043060    0.1200
     15 C15       -11.3656   -2.6031   58.2118 C.3     1  ZINC000894043060   -0.1700
     16 C16       -13.5200   -2.8927   56.9800 C.3     1  ZINC000894043060    0.2600
     17 F17       -13.8052   -3.9868   57.8039 F       1  ZINC000894043060   -0.1900
     18 F18       -14.0437   -1.7287   57.5526 F       1  ZINC000894043060   -0.2000
     19 C19        -8.4685    1.2914   54.0401 C.ar    1  ZINC000894043060   -0.0600
     20 C20        -9.1736    1.9820   53.0721 C.ar    1  ZINC000894043060   -0.1200
     21 C21        -8.4978    2.7264   52.1236 C.ar    1  ZINC000894043060   -0.1200
     22 C22        -7.1154    2.7803   52.1433 C.ar    1  ZINC000894043060   -0.0400
     23 Cl23       -6.2659    3.7155   50.9527 Cl      1  ZINC000894043060   -0.0800
     24 C24        -6.4104    2.0889   53.1124 C.ar    1  ZINC000894043060   -0.1100
     25 C25        -7.0875    1.3494   54.0637 C.ar    1  ZINC000894043060   -0.0400
     26 C26        -8.8657   -0.0890   60.6225 C.3     1  ZINC000894043060    0.2600
     27 F27       -10.2247   -0.0617   60.9533 F       1  ZINC000894043060   -0.2000
     28 F28        -8.5695   -1.2880   59.9655 F       1  ZINC000894043060   -0.1900
     29 H29        -9.8266    2.4583   60.7595 H       1  ZINC000894043060    0.0600
     30 H30        -8.1416    2.4411   61.3330 H       1  ZINC000894043060    0.0800
     31 H31        -8.5509    3.2423   59.7971 H       1  ZINC000894043060    0.0800
     32 H32       -10.3045    0.6898   58.5909 H       1  ZINC000894043060    0.4000
     33 H33       -10.8102    1.0470   56.3951 H       1  ZINC000894043060    0.1000
     34 H34        -9.9216    2.4171   55.6870 H       1  ZINC000894043060    0.1000
     35 H35        -8.5103   -0.1990   55.5669 H       1  ZINC000894043060    0.1000
     36 H36       -11.2080    0.2853   54.3024 H       1  ZINC000894043060    0.1000
     37 H37        -9.9800   -0.6360   53.4017 H       1  ZINC000894043060    0.1000
     38 H38       -12.2828   -0.7860   56.0705 H       1  ZINC000894043060    0.4000
     39 H39       -11.7669   -1.7180   58.7054 H       1  ZINC000894043060    0.0700
     40 H40       -11.5893   -3.4860   58.8105 H       1  ZINC000894043060    0.0800
     41 H41       -10.2857   -2.5010   58.1043 H       1  ZINC000894043060    0.0700
     42 H42       -13.9695   -3.0493   55.9995 H       1  ZINC000894043060    0.1200
     43 H43       -10.2526    1.9395   53.0566 H       1  ZINC000894043060    0.1200
     44 H44        -9.0486    3.2655   51.3672 H       1  ZINC000894043060    0.1300
     45 H45        -5.3313    2.1304   53.1279 H       1  ZINC000894043060    0.1300
     46 H46        -6.5373    0.8100   54.8204 H       1  ZINC000894043060    0.1300
     47 H47        -8.2689   -0.0159   61.5317 H       1  ZINC000894043060    0.1100
@<TRIPOS>BOND
     1     1     2    1
     2     1    29    1
     3     1    30    1
     4     1    31    1
     5     2     3    1
     6     2     4    1
     7     2    26    1
     8     4     5   am
     9     4    32    1
    10     5     6    2
    11     5     7    1
    12     7     8    1
    13     7    33    1
    14     7    34    1
    15     8     9    1
    16     8    19    1
    17     8    35    1
    18     9    10    1
    19     9    36    1
    20     9    37    1
    21    10    11    2
    22    10    12   am
    23    12    13    1
    24    12    38    1
    25    13    14    1
    26    13    15    1
    27    13    16    1
    28    15    39    1
    29    15    40    1
    30    15    41    1
    31    16    17    1
    32    16    18    1
    33    16    42    1
    34    19    25   ar
    35    19    20   ar
    36    20    21   ar
    37    20    43    1
    38    21    22   ar
    39    21    44    1
    40    22    23    1
    41    22    24   ar
    42    24    25   ar
    43    24    45    1
    44    25    46    1
    45    26    27    1
    46    26    28    1
    47    26    47    1
@<TRIPOS>SUBSTRUCTURE
     1 ZINC000894043060        1 TEMP              0 ****  ****    0 ROOT


##########                                Name:    ZINC000826324849
##########                DOCK_Rotatable_Bonds:                   4
##########                         Heavy_Atoms:                  27
##########                    Molecular_Weight:             395.374
##########                DOCK_Rotatable_Bonds:                   4
##########                       Formal_Charge:           0.0400001
##########                     HBond_Acceptors:                  13
##########                        HBond_Donors:                   1
##########                         Heavy_Atoms:                  27
##########                          Grid_Score:          -27.964401
##########                     Grid_vdw_energy:          -28.120850
##########                      Grid_es_energy:            0.156448
##########           Internal_energy_repulsive:          105.009865

@<TRIPOS>MOLECULE
ZINC000826324849
 41 44 1 0 0
SMALL
USER_CHARGES


@<TRIPOS>ATOM
      1 C1         -9.0587    2.0674   60.0750 C.3     1  ZINC000826324849   -0.0600
      2 C2         -9.3136    0.6139   59.7694 C.2     1  ZINC000826324849    0.2000
      3 N3        -10.4826    0.0456   59.5959 N.2     1  ZINC000826324849   -0.4600
      4 C4        -10.2219   -1.2503   59.3481 C.2     1  ZINC000826324849    0.1600
      5 C5        -11.2392   -2.3291   59.0790 C.3     1  ZINC000826324849    0.2200
      6 H6        -10.8285   -3.2991   59.3592 H       1  ZINC000826324849    0.1300
      7 C7        -12.5108   -2.0533   59.8894 C.3     1  ZINC000826324849    0.0600
      8 O8        -13.5319   -2.9706   59.4897 O.3     1  ZINC000826324849   -0.3600
      9 C9        -13.9261   -2.8475   58.1211 C.3     1  ZINC000826324849    0.0400
     10 C10       -12.7270   -3.1641   57.2201 C.3     1  ZINC000826324849    0.0800
     11 N11       -11.5904   -2.3338   57.6501 N.am    1  ZINC000826324849   -1.0100
     12 S12       -10.7335   -1.4303   56.5583 S.o2    1  ZINC000826324849    2.7100
     13 O13        -9.8217   -0.6457   57.3148 O.2     1  ZINC000826324849   -0.9300
     14 O14       -10.3244   -2.3236   55.5317 O.2     1  ZINC000826324849   -0.9300
     15 C15       -11.8635   -0.3013   55.8146 C.ar    1  ZINC000826324849   -0.5800
     16 C16       -12.9646    0.1398   56.5199 C.ar    1  ZINC000826324849   -0.0400
     17 C17       -13.8534    1.0262   55.9384 C.ar    1  ZINC000826324849   -0.0800
     18 C18       -13.6453    1.4755   54.6476 C.ar    1  ZINC000826324849   -0.1100
     19 C19       -12.5456    1.0405   53.9309 C.ar    1  ZINC000826324849    0.1300
     20 F20       -12.3421    1.4799   52.6696 F       1  ZINC000826324849   -0.1100
     21 C21       -11.6436    0.1515   54.5158 C.ar    1  ZINC000826324849    0.0500
     22 C22       -10.4606   -0.3194   53.7527 C.2     1  ZINC000826324849    0.1800
     23 N23       -10.4407   -1.2673   52.8369 N.2     1  ZINC000826324849   -0.2600
     24 N24        -9.2295   -1.3786   52.4108 N.pl3   1  ZINC000826324849   -0.2200
     25 N25        -8.4817   -0.5314   53.0274 N.2     1  ZINC000826324849   -0.0200
     26 N26        -9.2058    0.1406   53.8567 N.2     1  ZINC000826324849   -0.2600
     27 N27        -8.9317   -1.4013   59.3828 N.2     1  ZINC000826324849   -0.3800
     28 O28        -8.3911   -0.3412   59.6176 O.3     1  ZINC000826324849    0.0900
     29 H29        -7.9855    2.2384   60.1584 H       1  ZINC000826324849    0.1000
     30 H30        -9.4636    2.6838   59.2724 H       1  ZINC000826324849    0.1100
     31 H31        -9.5428    2.3313   61.0153 H       1  ZINC000826324849    0.1100
     32 H32       -12.3009   -2.1822   60.9512 H       1  ZINC000826324849    0.1200
     33 H33       -12.8459   -1.0326   59.7051 H       1  ZINC000826324849    0.0600
     34 H34       -14.7345   -3.5479   57.9106 H       1  ZINC000826324849    0.1200
     35 H35       -14.2663   -1.8297   57.9303 H       1  ZINC000826324849    0.0600
     36 H36       -12.4664   -4.2184   57.3126 H       1  ZINC000826324849    0.0900
     37 H37       -12.9763   -2.9366   56.1837 H       1  ZINC000826324849    0.1100
     38 H38       -13.1329   -0.2080   57.5285 H       1  ZINC000826324849    0.1400
     39 H39       -14.7135    1.3684   56.4948 H       1  ZINC000826324849    0.1500
     40 H40       -14.3429    2.1669   54.1982 H       1  ZINC000826324849    0.1500
     41 H41        -8.9286   -2.0030   51.7323 H       1  ZINC000826324849    0.4800
@<TRIPOS>BOND
     1     1     2    1
     2     1    29    1
     3     1    30    1
     4     1    31    1
     5     2    28    1
     6     2     3    2
     7     3     4    1
     8     4     5    1
     9     4    27    2
    10     5     6    1
    11     5    11    1
    12     5     7    1
    13     7     8    1
    14     7    32    1
    15     7    33    1
    16     8     9    1
    17     9    10    1
    18     9    34    1
    19     9    35    1
    20    10    11    1
    21    10    36    1
    22    10    37    1
    23    11    12   am
    24    12    13    2
    25    12    14    2
    26    12    15    1
    27    15    21   ar
    28    15    16   ar
    29    16    17   ar
    30    16    38    1
    31    17    18   ar
    32    17    39    1
    33    18    19   ar
    34    18    40    1
    35    19    20    1
    36    19    21   ar
    37    21    22    1
    38    22    26    1
    39    22    23    2
    40    23    24    1
    41    24    25    1
    42    24    41    1
    43    25    26    2
    44    27    28    1
@<TRIPOS>SUBSTRUCTURE
     1 ZINC000826324849        1 TEMP              0 ****  ****    0 ROOT


##########                                Name:    ZINC000652498551
##########                DOCK_Rotatable_Bonds:                   6
##########                         Heavy_Atoms:                  23
##########                    Molecular_Weight:             388.277
##########                DOCK_Rotatable_Bonds:                   6
##########                       Formal_Charge:          -0.0400001
##########                     HBond_Acceptors:                   5
##########                        HBond_Donors:                   1
##########                         Heavy_Atoms:                  23
##########                          Grid_Score:          -27.955566
##########                     Grid_vdw_energy:          -28.856525
##########                      Grid_es_energy:            0.900960
##########           Internal_energy_repulsive:           17.693150

@<TRIPOS>MOLECULE
ZINC000652498551
 46 47 1 0 0
SMALL
USER_CHARGES


@<TRIPOS>ATOM
      1 C1         -1.9354    5.6754   58.3566 C.3     1  ZINC000652498551   -0.1300
      2 C2         -1.3791    4.5105   57.5352 C.3     1  ZINC000652498551   -0.1300
      3 C3          0.1012    4.3133   57.8676 C.3     1  ZINC000652498551   -0.1300
      4 C4         -2.1405    3.2531   57.8673 C.2     1  ZINC000652498551    0.5000
      5 O5         -3.2608    3.3263   58.3426 O.co2   1  ZINC000652498551   -0.7000
      6 O6         -1.6360    2.1625   57.6607 O.co2   1  ZINC000652498551   -0.6700
      7 C7         -1.5303    4.8196   56.0444 C.3     1  ZINC000652498551   -0.0600
      8 H8         -1.2203    5.8467   55.8525 H       1  ZINC000652498551    0.0700
      9 C9         -2.9941    4.6414   55.6311 C.3     1  ZINC000652498551   -0.1500
     10 C10        -3.1207    4.8765   54.1231 C.3     1  ZINC000652498551   -0.1400
     11 C11        -2.1881    3.9158   53.3826 C.3     1  ZINC000652498551   -0.0100
     12 N12        -0.8016    4.1537   53.8017 N.4     1  ZINC000652498551   -0.3800
     13 H13        -0.5604    5.1184   53.6307 H       1  ZINC000652498551    0.4200
     14 C14         0.0972    3.2822   53.0331 C.3     1  ZINC000652498551    0.0000
     15 C15        -0.0894    3.5486   51.5381 C.3     1  ZINC000652498551    0.0200
     16 O16         1.1060    3.1966   50.8386 O.3     1  ZINC000652498551   -0.3100
     17 C17         1.4080    1.8739   50.7600 C.ar    1  ZINC000652498551    0.1600
     18 C18         2.4471    1.3531   51.5161 C.ar    1  ZINC000652498551   -0.2300
     19 C19         2.7530    0.0058   51.4344 C.ar    1  ZINC000652498551    0.1500
     20 F20         3.7653   -0.5028   52.1705 F       1  ZINC000652498551   -0.1200
     21 C21         2.0217   -0.8210   50.5986 C.ar    1  ZINC000652498551   -0.1600
     22 C22         0.9851   -0.3019   49.8436 C.ar    1  ZINC000652498551   -0.0300
     23 Br23       -0.0119   -1.4338   48.7032 Br      1  ZINC000652498551   -0.0100
     24 C24         0.6732    1.0421   49.9272 C.ar    1  ZINC000652498551   -0.1300
     25 C25        -0.6557    3.8616   55.2328 C.3     1  ZINC000652498551   -0.0200
     26 H26        -1.3848    6.5849   58.1164 H       1  ZINC000652498551    0.0400
     27 H27        -2.9900    5.8159   58.1198 H       1  ZINC000652498551    0.0500
     28 H28        -1.8277    5.4552   59.4187 H       1  ZINC000652498551    0.0600
     29 H29         0.2089    4.0931   58.9297 H       1  ZINC000652498551    0.0700
     30 H30         0.4975    3.4833   57.2826 H       1  ZINC000652498551    0.0400
     31 H31         0.6519    5.2228   57.6275 H       1  ZINC000652498551    0.0500
     32 H32        -3.3199    3.6294   55.8709 H       1  ZINC000652498551    0.1300
     33 H33        -3.6139    5.3614   56.1656 H       1  ZINC000652498551    0.0800
     34 H34        -4.1498    4.6971   53.8120 H       1  ZINC000652498551    0.1000
     35 H35        -2.8435    5.9047   53.8906 H       1  ZINC000652498551    0.0700
     36 H36        -2.4663    2.8880   53.6157 H       1  ZINC000652498551    0.1300
     37 H37        -2.2759    4.0803   52.3087 H       1  ZINC000652498551    0.1100
     38 H38         1.1302    3.4885   53.3127 H       1  ZINC000652498551    0.1400
     39 H39        -0.1361    2.2394   53.2482 H       1  ZINC000652498551    0.1500
     40 H40        -0.9195    2.9499   51.1631 H       1  ZINC000652498551    0.1100
     41 H41        -0.3041    4.6057   51.3814 H       1  ZINC000652498551    0.0900
     42 H42         3.0175    1.9982   52.1678 H       1  ZINC000652498551    0.1500
     43 H43         2.2608   -1.8723   50.5358 H       1  ZINC000652498551    0.1500
     44 H44        -0.1363    1.4464   49.3377 H       1  ZINC000652498551    0.1500
     45 H45         0.3873    3.9859   55.5240 H       1  ZINC000652498551    0.1100
     46 H46        -0.9664    2.8352   55.4272 H       1  ZINC000652498551    0.1700
@<TRIPOS>BOND
     1     1     2    1
     2     1    26    1
     3     1    27    1
     4     1    28    1
     5     2     3    1
     6     2     4    1
     7     2     7    1
     8     3    29    1
     9     3    30    1
    10     3    31    1
    11     4     5   ar
    12     4     6   ar
    13     7     8    1
    14     7    25    1
    15     7     9    1
    16     9    10    1
    17     9    32    1
    18     9    33    1
    19    10    11    1
    20    10    34    1
    21    10    35    1
    22    11    12    1
    23    11    36    1
    24    11    37    1
    25    12    13    1
    26    12    14    1
    27    12    25    1
    28    14    15    1
    29    14    38    1
    30    14    39    1
    31    15    16    1
    32    15    40    1
    33    15    41    1
    34    16    17    1
    35    17    24   ar
    36    17    18   ar
    37    18    19   ar
    38    18    42    1
    39    19    20    1
    40    19    21   ar
    41    21    22   ar
    42    21    43    1
    43    22    23    1
    44    22    24   ar
    45    24    44    1
    46    25    45    1
    47    25    46    1
@<TRIPOS>SUBSTRUCTURE
     1 ZINC000652498551        1 TEMP              0 ****  ****    0 ROOT


##########                                Name:    ZINC000130059363
##########                DOCK_Rotatable_Bonds:                   4
##########                         Heavy_Atoms:                  29
##########                    Molecular_Weight:             389.497
##########                DOCK_Rotatable_Bonds:                   4
##########                       Formal_Charge:          -0.0100003
##########                     HBond_Acceptors:                   5
##########                        HBond_Donors:                   0
##########                         Heavy_Atoms:                  29
##########                          Grid_Score:          -27.953678
##########                     Grid_vdw_energy:          -27.098667
##########                      Grid_es_energy:           -0.855011
##########           Internal_energy_repulsive:           29.542717

@<TRIPOS>MOLECULE
ZINC000130059363
 56 60 1 0 0
SMALL
USER_CHARGES


@<TRIPOS>ATOM
      1 C1         -1.1331    3.6404   53.3463 C.3     1  ZINC000130059363   -0.1200
      2 C2         -1.8162    4.2024   54.5664 C.ar    1  ZINC000130059363    0.1900
      3 N3         -1.4515    3.7943   55.7620 N.ar    1  ZINC000130059363   -0.4800
      4 C4         -2.0244    4.2615   56.8652 C.ar    1  ZINC000130059363    0.2000
      5 C5         -1.5747    3.7678   58.1884 C.ar    1  ZINC000130059363   -0.0600
      6 C6         -2.2023    4.2122   59.3515 C.ar    1  ZINC000130059363   -0.1000
      7 C7         -1.7795    3.7487   60.5806 C.ar    1  ZINC000130059363   -0.1200
      8 C8         -0.7349    2.8452   60.6602 C.ar    1  ZINC000130059363   -0.1000
      9 C9         -0.1081    2.4011   59.5097 C.ar    1  ZINC000130059363   -0.1300
     10 C10        -0.5262    2.8528   58.2747 C.ar    1  ZINC000130059363   -0.0700
     11 C11        -3.0436    5.2110   56.7949 C.ar    1  ZINC000130059363   -0.1800
     12 C12        -3.4566    5.6662   55.5584 C.ar    1  ZINC000130059363   -0.0400
     13 C13        -2.8260    5.1553   54.4157 C.ar    1  ZINC000130059363   -0.1900
     14 C14        -3.2312    5.6105   53.0702 C.2     1  ZINC000130059363    0.5700
     15 O15        -2.4890    6.3204   52.4196 O.2     1  ZINC000130059363   -0.5200
     16 N16        -4.4236    5.2389   52.5637 N.am    1  ZINC000130059363   -0.6000
     17 C17        -4.8407    5.6774   51.2242 C.3     1  ZINC000130059363    0.1000
     18 C18        -5.1971    4.4377   50.3983 C.3     1  ZINC000130059363   -0.1500
     19 C19        -6.2365    3.6038   51.1389 C.3     1  ZINC000130059363    0.1500
     20 H20        -6.4416    2.7125   50.5459 H       1  ZINC000130059363    0.0700
     21 C21        -5.7074    3.1576   52.5005 C.3     1  ZINC000130059363   -0.1100
     22 H22        -4.8443    2.5048   52.3708 H       1  ZINC000130059363    0.1000
     23 C23        -6.8348    2.4047   53.2246 C.3     1  ZINC000130059363   -0.1200
     24 C24        -7.9392    3.4088   53.5641 C.3     1  ZINC000130059363   -0.1400
     25 C25        -8.2774    4.2353   52.3571 C.2     1  ZINC000130059363    0.5200
     26 O26        -9.3238    4.8486   52.3561 O.2     1  ZINC000130059363   -0.5400
     27 N27        -7.4819    4.3377   51.2990 N.am    1  ZINC000130059363   -0.5700
     28 C28        -7.8933    5.2228   50.2065 C.3     1  ZINC000130059363    0.0700
     29 C29        -7.9519    4.6270   48.7985 C.3     1  ZINC000130059363   -0.1800
     30 C30        -9.2466    4.9492   49.5472 C.3     1  ZINC000130059363   -0.1600
     31 C31        -5.3325    4.3821   53.3351 C.3     1  ZINC000130059363    0.1100
     32 H32        -0.3303    4.3104   53.0385 H       1  ZINC000130059363    0.0800
     33 H33        -0.7183    2.6602   53.5813 H       1  ZINC000130059363    0.0800
     34 H34        -1.8566    3.5443   52.5368 H       1  ZINC000130059363    0.1000
     35 H35        -3.0175    4.9181   59.2906 H       1  ZINC000130059363    0.1300
     36 H36        -2.2648    4.0922   61.4821 H       1  ZINC000130059363    0.1300
     37 H37        -0.4071    2.4855   61.6243 H       1  ZINC000130059363    0.1300
     38 H38         0.7071    1.6960   59.5781 H       1  ZINC000130059363    0.1300
     39 H39        -0.0361    2.5054   57.3771 H       1  ZINC000130059363    0.1400
     40 H40        -3.5045    5.5856   57.6969 H       1  ZINC000130059363    0.1400
     41 H41        -4.2437    6.4009   55.4740 H       1  ZINC000130059363    0.1400
     42 H42        -5.7122    6.3271   51.3055 H       1  ZINC000130059363    0.0700
     43 H43        -4.0243    6.2163   50.7436 H       1  ZINC000130059363    0.0900
     44 H44        -5.6013    4.7482   49.4348 H       1  ZINC000130059363    0.0900
     45 H45        -4.3002    3.8395   50.2377 H       1  ZINC000130059363    0.0800
     46 H46        -7.2333    1.6256   52.5747 H       1  ZINC000130059363    0.0800
     47 H47        -6.4494    1.9582   54.1412 H       1  ZINC000130059363    0.0900
     48 H48        -8.8279    2.8704   53.8936 H       1  ZINC000130059363    0.1000
     49 H49        -7.5981    4.0633   54.3660 H       1  ZINC000130059363    0.1000
     50 H50        -7.5805    6.2626   50.3007 H       1  ZINC000130059363    0.1100
     51 H51        -7.6773    5.2749   47.9660 H       1  ZINC000130059363    0.1100
     52 H52        -7.6841    3.5764   48.6850 H       1  ZINC000130059363    0.1000
     53 H53        -9.8308    4.1107   49.9263 H       1  ZINC000130059363    0.1000
     54 H54        -9.8239    5.8090   49.2073 H       1  ZINC000130059363    0.1000
     55 H55        -4.8406    4.0605   54.2531 H       1  ZINC000130059363    0.1000
     56 H56        -6.2330    4.9448   53.5811 H       1  ZINC000130059363    0.0700
@<TRIPOS>BOND
     1     1     2    1
     2     1    32    1
     3     1    33    1
     4     1    34    1
     5     2    13   ar
     6     2     3   ar
     7     3     4   ar
     8     4     5    1
     9     4    11   ar
    10     5    10   ar
    11     5     6   ar
    12     6     7   ar
    13     6    35    1
    14     7     8   ar
    15     7    36    1
    16     8     9   ar
    17     8    37    1
    18     9    10   ar
    19     9    38    1
    20    10    39    1
    21    11    12   ar
    22    11    40    1
    23    12    13   ar
    24    12    41    1
    25    13    14    1
    26    14    15    2
    27    14    16   am
    28    16    31    1
    29    16    17    1
    30    17    18    1
    31    17    42    1
    32    17    43    1
    33    18    19    1
    34    18    44    1
    35    18    45    1
    36    19    20    1
    37    19    27    1
    38    19    21    1
    39    21    22    1
    40    21    23    1
    41    21    31    1
    42    23    24    1
    43    23    46    1
    44    23    47    1
    45    24    25    1
    46    24    48    1
    47    24    49    1
    48    25    26    2
    49    25    27   am
    50    27    28    1
    51    28    30    1
    52    28    29    1
    53    28    50    1
    54    29    30    1
    55    29    51    1
    56    29    52    1
    57    30    53    1
    58    30    54    1
    59    31    55    1
    60    31    56    1
@<TRIPOS>SUBSTRUCTURE
     1 ZINC000130059363        1 TEMP              0 ****  ****    0 ROOT


##########                                Name:    ZINC001271977984
##########                DOCK_Rotatable_Bonds:                   7
##########                         Heavy_Atoms:                  24
##########                    Molecular_Weight:             328.371
##########                DOCK_Rotatable_Bonds:                   7
##########                       Formal_Charge:           0.0200001
##########                     HBond_Acceptors:                   7
##########                        HBond_Donors:                   0
##########                         Heavy_Atoms:                  24
##########                          Grid_Score:          -27.945412
##########                     Grid_vdw_energy:          -26.715723
##########                      Grid_es_energy:           -1.229688
##########           Internal_energy_repulsive:           19.315075

@<TRIPOS>MOLECULE
ZINC001271977984
 44 46 1 0 0
SMALL
USER_CHARGES


@<TRIPOS>ATOM
      1 C1        -10.1787    1.7560   58.0678 C.3     1  ZINC001271977984   -0.1800
      2 C2        -11.3380    0.9798   57.4396 C.3     1  ZINC001271977984    0.1700
      3 H3        -12.2048    1.6340   57.3463 H       1  ZINC001271977984    0.1100
      4 C4        -10.9314    0.4867   56.0749 C.2     1  ZINC001271977984    0.2700
      5 N5         -9.7049    0.3652   55.6645 N.2     1  ZINC001271977984   -0.4700
      6 C6         -9.7142   -0.1059   54.3881 C.ar    1  ZINC001271977984    0.0200
      7 C7         -8.7141   -0.4209   53.4673 C.ar    1  ZINC001271977984   -0.0600
      8 C8         -9.0582   -0.8894   52.2188 C.ar    1  ZINC001271977984   -0.1200
      9 C9        -10.3913   -1.0499   51.8718 C.ar    1  ZINC001271977984   -0.0900
     10 C10       -11.3904   -0.7421   52.7719 C.ar    1  ZINC001271977984   -0.0900
     11 C11       -11.0622   -0.2697   54.0331 C.ar    1  ZINC001271977984    0.0100
     12 O12       -11.7847    0.1049   55.1117 O.3     1  ZINC001271977984   -0.2100
     13 N13       -11.6791   -0.1664   58.2929 N.3     1  ZINC001271977984   -0.5300
     14 C14       -13.0348   -0.6526   58.0040 C.3     1  ZINC001271977984    0.0000
     15 C15       -10.6912   -1.2437   58.1472 C.3     1  ZINC001271977984    0.0400
     16 C16       -10.5673   -2.0042   59.4689 C.3     1  ZINC001271977984    0.1200
     17 N17        -9.7948   -1.2038   60.4224 N.am    1  ZINC001271977984   -0.6000
     18 C18        -8.3585   -1.0027   60.2153 C.3     1  ZINC001271977984    0.0800
     19 C19       -10.4055   -0.6526   61.4899 C.2     1  ZINC001271977984    0.6000
     20 O20       -11.5977   -0.8196   61.6617 O.2     1  ZINC001271977984   -0.5300
     21 C21        -9.6282    0.1528   62.4493 C.2     1  ZINC001271977984   -0.0800
     22 C22        -8.7998    1.1901   62.1496 C.2     1  ZINC001271977984    0.0200
     23 O23        -8.2976    1.6382   63.3113 O.3     1  ZINC001271977984   -0.2000
     24 C24        -8.8059    0.8930   64.3029 C.2     1  ZINC001271977984    0.1800
     25 N25        -9.6084    0.0026   63.8015 N.2     1  ZINC001271977984   -0.4600
     26 H26       -10.4728    2.1127   59.0548 H       1  ZINC001271977984    0.0800
     27 H27        -9.3118    1.1019   58.1611 H       1  ZINC001271977984    0.0800
     28 H28        -9.9256    2.6065   57.4347 H       1  ZINC001271977984    0.0700
     29 H29        -7.6745   -0.2975   53.7325 H       1  ZINC001271977984    0.1400
     30 H30        -8.2850   -1.1332   51.5052 H       1  ZINC001271977984    0.1400
     31 H31       -10.6491   -1.4181   50.8898 H       1  ZINC001271977984    0.1400
     32 H32       -12.4264   -0.8696   52.4946 H       1  ZINC001271977984    0.1400
     33 H33       -13.0948   -0.9634   56.9609 H       1  ZINC001271977984    0.0300
     34 H34       -13.2617   -1.5011   58.6495 H       1  ZINC001271977984    0.0700
     35 H35       -13.7540    0.1458   58.1872 H       1  ZINC001271977984    0.1100
     36 H36       -11.0134   -1.9285   57.3627 H       1  ZINC001271977984    0.0500
     37 H37        -9.7241   -0.8164   57.8817 H       1  ZINC001271977984    0.0800
     38 H38       -11.5614   -2.1927   59.8742 H       1  ZINC001271977984    0.0900
     39 H39       -10.0595   -2.9531   59.2959 H       1  ZINC001271977984    0.0900
     40 H40        -8.1951   -0.0591   59.6947 H       1  ZINC001271977984    0.0600
     41 H41        -7.8523   -0.9777   61.1803 H       1  ZINC001271977984    0.0900
     42 H42        -7.9595   -1.8217   59.6168 H       1  ZINC001271977984    0.0700
     43 H43        -8.5866    1.5787   61.1648 H       1  ZINC001271977984    0.2300
     44 H44        -8.5858    1.0156   65.3531 H       1  ZINC001271977984    0.2600
@<TRIPOS>BOND
     1     1     2    1
     2     1    26    1
     3     1    27    1
     4     1    28    1
     5     2     3    1
     6     2     4    1
     7     2    13    1
     8     4    12    1
     9     4     5    2
    10     5     6    1
    11     6    11   ar
    12     6     7   ar
    13     7     8   ar
    14     7    29    1
    15     8     9   ar
    16     8    30    1
    17     9    10   ar
    18     9    31    1
    19    10    11   ar
    20    10    32    1
    21    11    12    1
    22    13    14    1
    23    13    15    1
    24    14    33    1
    25    14    34    1
    26    14    35    1
    27    15    16    1
    28    15    36    1
    29    15    37    1
    30    16    17    1
    31    16    38    1
    32    16    39    1
    33    17    18    1
    34    17    19   am
    35    18    40    1
    36    18    41    1
    37    18    42    1
    38    19    20    2
    39    19    21    1
    40    21    25    1
    41    21    22    2
    42    22    23    1
    43    22    43    1
    44    23    24    1
    45    24    25    2
    46    24    44    1
@<TRIPOS>SUBSTRUCTURE
     1 ZINC001271977984        1 TEMP              0 ****  ****    0 ROOT


##########                                Name:    ZINC000245764166
##########                DOCK_Rotatable_Bonds:                   8
##########                         Heavy_Atoms:                  26
##########                    Molecular_Weight:             359.512
##########                DOCK_Rotatable_Bonds:                   8
##########                       Formal_Charge:          -0.0100008
##########                     HBond_Acceptors:                   5
##########                        HBond_Donors:                   2
##########                         Heavy_Atoms:                  26
##########                          Grid_Score:          -27.911386
##########                     Grid_vdw_energy:          -27.498318
##########                      Grid_es_energy:           -0.413069
##########           Internal_energy_repulsive:           29.629564

@<TRIPOS>MOLECULE
ZINC000245764166
 59 61 1 0 0
SMALL
USER_CHARGES


@<TRIPOS>ATOM
      1 C1        -10.5762   -0.9841   61.1440 C.3     1  ZINC000245764166    0.0200
      2 N2         -9.9033    0.3217   61.1395 N.3     1  ZINC000245764166   -0.5300
      3 C3         -8.7458    0.3206   62.0439 C.3     1  ZINC000245764166    0.0600
      4 C4         -9.2247    0.3197   63.4728 C.ar    1  ZINC000245764166   -0.0800
      5 C5        -10.4971    0.7675   63.7755 C.ar    1  ZINC000245764166   -0.1000
      6 C6        -10.9364    0.7668   65.0861 C.ar    1  ZINC000245764166   -0.1200
      7 C7        -10.1037    0.3178   66.0940 C.ar    1  ZINC000245764166   -0.1200
      8 C8         -8.8317   -0.1309   65.7913 C.ar    1  ZINC000245764166   -0.1200
      9 C9         -8.3939   -0.1341   64.4800 C.ar    1  ZINC000245764166   -0.1200
     10 C10        -9.5071    0.7050   59.7778 C.3     1  ZINC000245764166    0.0500
     11 C11        -9.9626    2.1388   59.4987 C.3     1  ZINC000245764166    0.1900
     12 C12       -11.2033    2.4522   60.3373 C.3     1  ZINC000245764166   -0.1600
     13 C13        -8.8399    3.1112   59.8658 C.3     1  ZINC000245764166   -0.1500
     14 N14       -10.2857    2.2804   58.0769 N.am    1  ZINC000245764166   -0.7400
     15 C15        -9.3930    1.8995   57.1417 C.2     1  ZINC000245764166    0.7000
     16 O16        -8.3189    1.4398   57.4781 O.2     1  ZINC000245764166   -0.5800
     17 N17        -9.6910    2.0283   55.8336 N.am    1  ZINC000245764166   -0.7500
     18 C18        -8.7199    1.6159   54.8171 C.3     1  ZINC000245764166    0.1800
     19 H19        -8.2893    0.6557   55.1011 H       1  ZINC000245764166    0.0900
     20 C20        -7.6088    2.6593   54.7312 C.3     1  ZINC000245764166   -0.1300
     21 C21        -6.5707    2.1850   53.7082 C.3     1  ZINC000245764166   -0.1100
     22 C22        -7.2439    2.1122   52.3378 C.3     1  ZINC000245764166   -0.1100
     23 C23        -8.4190    1.1629   52.3514 C.3     1  ZINC000245764166    0.0900
     24 H24        -8.9394    1.2285   51.3960 H       1  ZINC000245764166    0.0600
     25 O25        -8.0373   -0.2002   52.5806 O.3     1  ZINC000245764166   -0.3600
     26 C26        -9.2475   -0.9033   52.9254 C.3     1  ZINC000245764166    0.0500
     27 C27       -10.2217    0.1288   53.5288 C.3     1  ZINC000245764166   -0.1500
     28 C28        -9.4317    1.4701   53.4704 C.3     1  ZINC000245764166   -0.1300
     29 H29       -10.0691    2.3221   53.2339 H       1  ZINC000245764166    0.1000
     30 H30       -10.8741   -1.2358   62.1618 H       1  ZINC000245764166    0.0800
     31 H31       -11.4597   -0.9398   60.5073 H       1  ZINC000245764166    0.0700
     32 H32        -9.8940   -1.7458   60.7663 H       1  ZINC000245764166    0.0200
     33 H33        -8.1435   -0.5695   61.8621 H       1  ZINC000245764166    0.0400
     34 H34        -8.1427    1.2105   61.8634 H       1  ZINC000245764166    0.1100
     35 H35       -11.1476    1.1183   62.9880 H       1  ZINC000245764166    0.1200
     36 H36       -11.9302    1.1173   65.3228 H       1  ZINC000245764166    0.1200
     37 H37       -10.4468    0.3178   67.1181 H       1  ZINC000245764166    0.1200
     38 H38        -8.1810   -0.4813   66.5787 H       1  ZINC000245764166    0.1200
     39 H39        -7.4001   -0.4846   64.2435 H       1  ZINC000245764166    0.1200
     40 H40        -8.4229    0.6434   59.6839 H       1  ZINC000245764166    0.0400
     41 H41        -9.9730    0.0297   59.0602 H       1  ZINC000245764166    0.1000
     42 H42       -10.9628    2.3468   61.3953 H       1  ZINC000245764166    0.0700
     43 H43       -11.5278    3.4736   60.1385 H       1  ZINC000245764166    0.0800
     44 H44       -12.0032    1.7594   60.0758 H       1  ZINC000245764166    0.0500
     45 H45        -7.9998    2.9696   59.1858 H       1  ZINC000245764166    0.0600
     46 H46        -9.2048    4.1350   59.7843 H       1  ZINC000245764166    0.0800
     47 H47        -8.5151    2.9216   60.8889 H       1  ZINC000245764166    0.0600
     48 H48       -11.1422    2.6482   57.8084 H       1  ZINC000245764166    0.3900
     49 H49       -10.5484    2.3939   55.5652 H       1  ZINC000245764166    0.3900
     50 H50        -8.0272    3.6138   54.4122 H       1  ZINC000245764166    0.0600
     51 H51        -7.1362    2.7716   55.7069 H       1  ZINC000245764166    0.0700
     52 H52        -5.7410    2.8910   53.6727 H       1  ZINC000245764166    0.0700
     53 H53        -6.2022    1.1984   53.9893 H       1  ZINC000245764166    0.0700
     54 H54        -7.5919    3.1065   52.0581 H       1  ZINC000245764166    0.0800
     55 H55        -6.5171    1.7695   51.6012 H       1  ZINC000245764166    0.0700
     56 H56        -9.6853   -1.3476   52.0315 H       1  ZINC000245764166    0.0600
     57 H57        -9.0290   -1.6796   53.6586 H       1  ZINC000245764166    0.0800
     58 H58       -11.1296    0.1938   52.9290 H       1  ZINC000245764166    0.0800
     59 H59       -10.4615   -0.1292   54.5603 H       1  ZINC000245764166    0.0800
@<TRIPOS>BOND
     1     1     2    1
     2     1    30    1
     3     1    31    1
     4     1    32    1
     5     2     3    1
     6     2    10    1
     7     3     4    1
     8     3    33    1
     9     3    34    1
    10     4     9   ar
    11     4     5   ar
    12     5     6   ar
    13     5    35    1
    14     6     7   ar
    15     6    36    1
    16     7     8   ar
    17     7    37    1
    18     8     9   ar
    19     8    38    1
    20     9    39    1
    21    10    11    1
    22    10    40    1
    23    10    41    1
    24    11    12    1
    25    11    13    1
    26    11    14    1
    27    12    42    1
    28    12    43    1
    29    12    44    1
    30    13    45    1
    31    13    46    1
    32    13    47    1
    33    14    15   am
    34    14    48    1
    35    15    16    2
    36    15    17   am
    37    17    18    1
    38    17    49    1
    39    18    19    1
    40    18    28    1
    41    18    20    1
    42    20    21    1
    43    20    50    1
    44    20    51    1
    45    21    22    1
    46    21    52    1
    47    21    53    1
    48    22    23    1
    49    22    54    1
    50    22    55    1
    51    23    24    1
    52    23    28    1
    53    23    25    1
    54    25    26    1
    55    26    27    1
    56    26    56    1
    57    26    57    1
    58    27    28    1
    59    27    58    1
    60    27    59    1
    61    28    29    1
@<TRIPOS>SUBSTRUCTURE
     1 ZINC000245764166        1 TEMP              0 ****  ****    0 ROOT


##########                                Name:    ZINC000132775118
##########                DOCK_Rotatable_Bonds:                   5
##########                         Heavy_Atoms:                  27
##########                    Molecular_Weight:             376.499
##########                DOCK_Rotatable_Bonds:                   5
##########                       Formal_Charge:        -4.76837e-07
##########                     HBond_Acceptors:                   7
##########                        HBond_Donors:                   1
##########                         Heavy_Atoms:                  27
##########                          Grid_Score:          -27.910824
##########                     Grid_vdw_energy:          -28.442286
##########                      Grid_es_energy:            0.531461
##########           Internal_energy_repulsive:           22.579317

@<TRIPOS>MOLECULE
ZINC000132775118
 59 62 1 0 0
SMALL
USER_CHARGES


@<TRIPOS>ATOM
      1 O1        -10.7199   -2.4339   56.3276 O.2     1  ZINC000132775118   -0.5200
      2 C2        -11.2338   -1.4382   56.7917 C.2     1  ZINC000132775118    0.5200
      3 C3        -11.7737   -0.3714   55.8744 C.3     1  ZINC000132775118    0.0300
      4 N4        -11.3605   -0.6575   54.4941 N.3     1  ZINC000132775118   -0.5100
      5 C5        -12.4694   -0.4337   53.5550 C.3     1  ZINC000132775118    0.0300
      6 C6        -11.9862   -0.5156   52.1357 C.2     1  ZINC000132775118    0.5300
      7 O7        -12.8084   -0.6390   51.2526 O.2     1  ZINC000132775118   -0.5500
      8 N8        -10.6910   -0.4585   51.7974 N.am    1  ZINC000132775118   -0.7200
      9 C9         -9.6357   -0.3792   52.7980 C.3     1  ZINC000132775118    0.1500
     10 H10        -9.2374   -1.3788   52.9723 H       1  ZINC000132775118    0.0800
     11 C11        -8.4995    0.5351   52.3456 C.3     1  ZINC000132775118   -0.1300
     12 C12        -7.3995    0.5231   53.4120 C.3     1  ZINC000132775118   -0.1200
     13 C13        -7.9623    1.0076   54.7485 C.3     1  ZINC000132775118   -0.1200
     14 C14        -9.1220    0.1070   55.1858 C.3     1  ZINC000132775118   -0.1200
     15 C15       -10.2068    0.1636   54.1097 C.3     1  ZINC000132775118    0.0700
     16 H16       -10.5345    1.1950   53.9801 H       1  ZINC000132775118    0.0600
     17 N17       -11.3272   -1.2885   58.1279 N.am    1  ZINC000132775118   -0.6200
     18 C18       -10.8002   -2.3172   59.0350 C.3     1  ZINC000132775118    0.1100
     19 C19        -9.8406   -1.6540   60.0282 C.3     1  ZINC000132775118   -0.1200
     20 C20       -10.5594   -0.5020   60.7340 C.3     1  ZINC000132775118   -0.1000
     21 C21        -9.6291    0.1312   61.7364 C.2     1  ZINC000132775118    0.5300
     22 O22        -8.4298   -0.0107   61.6247 O.2     1  ZINC000132775118   -0.5300
     23 N23       -10.1298    0.8552   62.7569 N.am    1  ZINC000132775118   -0.6200
     24 C24        -9.3400    1.5301   63.7973 C.3     1  ZINC000132775118    0.1000
     25 C25       -10.3363    2.2078   64.7615 C.3     1  ZINC000132775118   -0.1300
     26 C26       -11.6437    1.4046   64.5314 C.3     1  ZINC000132775118   -0.1300
     27 C27       -11.5600    1.1072   63.0112 C.3     1  ZINC000132775118    0.1000
     28 C28       -10.9855    0.5445   59.7019 C.3     1  ZINC000132775118   -0.1200
     29 C29       -11.9526   -0.0909   58.7051 C.3     1  ZINC000132775118    0.1200
     30 H30       -12.8620   -0.3588   55.9328 H       1  ZINC000132775118    0.0700
     31 H31       -11.3823    0.6000   56.1769 H       1  ZINC000132775118    0.1200
     32 H32       -13.2363   -1.1911   53.7177 H       1  ZINC000132775118    0.1300
     33 H33       -12.8969    0.5531   53.7326 H       1  ZINC000132775118    0.0700
     34 H34       -10.4489   -0.4706   50.8581 H       1  ZINC000132775118    0.4000
     35 H35        -8.0950    0.1744   51.3999 H       1  ZINC000132775118    0.0800
     36 H36        -8.8756    1.5505   52.2204 H       1  ZINC000132775118    0.0700
     37 H37        -7.0177   -0.4914   53.5268 H       1  ZINC000132775118    0.0700
     38 H38        -6.5874    1.1807   53.1017 H       1  ZINC000132775118    0.0700
     39 H39        -7.1769    0.9784   55.5037 H       1  ZINC000132775118    0.0700
     40 H40        -8.3202    2.0315   54.6404 H       1  ZINC000132775118    0.0600
     41 H41        -8.7650   -0.9159   55.3049 H       1  ZINC000132775118    0.0800
     42 H42        -9.5271    0.4668   56.1315 H       1  ZINC000132775118    0.0700
     43 H43       -11.6232   -2.7826   59.5773 H       1  ZINC000132775118    0.0800
     44 H44       -10.2655   -3.0728   58.4594 H       1  ZINC000132775118    0.0900
     45 H45        -9.5169   -2.3877   60.7664 H       1  ZINC000132775118    0.0800
     46 H46        -8.9728   -1.2681   59.4932 H       1  ZINC000132775118    0.0800
     47 H47       -11.4411   -0.8847   61.2481 H       1  ZINC000132775118    0.0900
     48 H48        -8.7389    0.7995   64.3385 H       1  ZINC000132775118    0.0700
     49 H49        -8.6940    2.2815   63.3434 H       1  ZINC000132775118    0.0700
     50 H50       -10.0006    2.1104   65.7939 H       1  ZINC000132775118    0.0800
     51 H51       -10.4762    3.2561   64.4975 H       1  ZINC000132775118    0.0800
     52 H52       -11.6437    0.4832   65.1137 H       1  ZINC000132775118    0.0800
     53 H53       -12.5201    2.0104   64.7615 H       1  ZINC000132775118    0.0900
     54 H54       -11.9074    1.9660   62.4369 H       1  ZINC000132775118    0.0700
     55 H55       -12.1471    0.2225   62.7649 H       1  ZINC000132775118    0.0800
     56 H56       -11.4767    1.3757   60.2079 H       1  ZINC000132775118    0.0800
     57 H57       -10.1070    0.9098   59.1701 H       1  ZINC000132775118    0.0800
     58 H58       -12.1810    0.6217   57.9126 H       1  ZINC000132775118    0.1000
     59 H59       -12.8708   -0.3766   59.2183 H       1  ZINC000132775118    0.0700
@<TRIPOS>BOND
     1     1     2    2
     2     2     3    1
     3     2    17   am
     4     3     4    1
     5     3    30    1
     6     3    31    1
     7     4    15    1
     8     4     5    1
     9     5     6    1
    10     5    32    1
    11     5    33    1
    12     6     7    2
    13     6     8   am
    14     8     9    1
    15     8    34    1
    16     9    10    1
    17     9    15    1
    18     9    11    1
    19    11    12    1
    20    11    35    1
    21    11    36    1
    22    12    13    1
    23    12    37    1
    24    12    38    1
    25    13    14    1
    26    13    39    1
    27    13    40    1
    28    14    15    1
    29    14    41    1
    30    14    42    1
    31    15    16    1
    32    17    29    1
    33    17    18    1
    34    18    19    1
    35    18    43    1
    36    18    44    1
    37    19    20    1
    38    19    45    1
    39    19    46    1
    40    20    21    1
    41    20    28    1
    42    20    47    1
    43    21    22    2
    44    21    23   am
    45    23    27    1
    46    23    24    1
    47    24    25    1
    48    24    48    1
    49    24    49    1
    50    25    26    1
    51    25    50    1
    52    25    51    1
    53    26    27    1
    54    26    52    1
    55    26    53    1
    56    27    54    1
    57    27    55    1
    58    28    29    1
    59    28    56    1
    60    28    57    1
    61    29    58    1
    62    29    59    1
@<TRIPOS>SUBSTRUCTURE
     1 ZINC000132775118        1 TEMP              0 ****  ****    0 ROOT


##########                                Name:    ZINC001082278299
##########                DOCK_Rotatable_Bonds:                   9
##########                         Heavy_Atoms:                  25
##########                    Molecular_Weight:              346.47
##########                DOCK_Rotatable_Bonds:                   9
##########                       Formal_Charge:           0.0200001
##########                     HBond_Acceptors:                   5
##########                        HBond_Donors:                   1
##########                         Heavy_Atoms:                  25
##########                          Grid_Score:          -27.902891
##########                     Grid_vdw_energy:          -27.236773
##########                      Grid_es_energy:           -0.666118
##########           Internal_energy_repulsive:           82.885330

@<TRIPOS>MOLECULE
ZINC001082278299
 55 57 1 0 0
SMALL
USER_CHARGES


@<TRIPOS>ATOM
      1 C1         -9.6111    0.3930   63.8239 C.3     1  ZINC001082278299   -0.1300
      2 C2         -9.5522    0.4982   62.3218 C.2     1  ZINC001082278299    0.0000
      3 C3         -8.5489   -0.0648   61.6545 C.2     1  ZINC001082278299   -0.2300
      4 C4         -8.4914    0.0379   60.1882 C.2     1  ZINC001082278299    0.5400
      5 O5         -8.6531   -0.9533   59.5025 O.2     1  ZINC001082278299   -0.5300
      6 N6         -8.2596    1.2305   59.6047 N.am    1  ZINC001082278299   -0.7400
      7 C7         -8.2006    1.3323   58.1445 C.3     1  ZINC001082278299    0.1300
      8 C8         -7.2191    2.4376   57.7497 C.3     1  ZINC001082278299    0.1400
      9 H9         -6.2111    2.1577   58.0560 H       1  ZINC001082278299    0.0800
     10 C10        -7.6188    3.7482   58.4347 C.3     1  ZINC001082278299   -0.1300
     11 C11        -6.7197    4.8786   57.9287 C.3     1  ZINC001082278299   -0.1200
     12 C12        -6.9080    5.0456   56.4192 C.3     1  ZINC001082278299   -0.1400
     13 C13        -6.5002    3.7497   55.7113 C.3     1  ZINC001082278299    0.1100
     14 N14        -7.2553    2.6315   56.2937 N.am    1  ZINC001082278299   -0.6100
     15 C15        -7.9713    1.8032   55.5078 C.2     1  ZINC001082278299    0.5100
     16 O16        -8.5901    0.8839   56.0005 O.2     1  ZINC001082278299   -0.5100
     17 C17        -8.0028    2.0192   54.0166 C.3     1  ZINC001082278299   -0.1100
     18 C18        -8.9611    1.0410   53.3875 C.2     1  ZINC001082278299   -0.0900
     19 C19       -10.2218    1.3519   53.3272 C.2     1  ZINC001082278299   -0.1800
     20 C20       -11.2579    0.4433   52.7288 C.3     1  ZINC001082278299    0.0900
     21 O21       -10.6277   -0.5748   51.9488 O.3     1  ZINC001082278299   -0.3800
     22 C22        -9.5738   -1.2464   52.6501 C.3     1  ZINC001082278299    0.0600
     23 C23        -8.4216   -0.2549   52.8480 C.3     1  ZINC001082278299   -0.1100
     24 C24       -10.6302    1.2414   61.5756 C.3     1  ZINC001082278299   -0.1200
     25 C25       -11.4933    0.4409   60.5983 C.3     1  ZINC001082278299   -0.1900
     26 C26       -12.0838    0.9179   61.9267 C.3     1  ZINC001082278299   -0.1500
     27 H27        -9.0830    1.2367   64.2682 H       1  ZINC001082278299    0.0800
     28 H28       -10.6516    0.4040   64.1484 H       1  ZINC001082278299    0.0800
     29 H29        -9.1413   -0.5379   64.1416 H       1  ZINC001082278299    0.0700
     30 H30        -7.7764   -0.5974   62.1893 H       1  ZINC001082278299    0.1300
     31 H31        -8.1318    2.0213   60.1517 H       1  ZINC001082278299    0.3900
     32 H32        -7.8654    0.3828   57.7273 H       1  ZINC001082278299    0.0900
     33 H33        -9.1910    1.5703   57.7565 H       1  ZINC001082278299    0.0800
     34 H34        -8.6584    3.9782   58.2016 H       1  ZINC001082278299    0.0700
     35 H35        -7.5016    3.6454   59.5135 H       1  ZINC001082278299    0.0800
     36 H36        -6.9858    5.8076   58.4329 H       1  ZINC001082278299    0.0700
     37 H37        -5.6781    4.6364   58.1401 H       1  ZINC001082278299    0.0700
     38 H38        -7.9543    5.2635   56.2050 H       1  ZINC001082278299    0.0700
     39 H39        -6.2849    5.8661   56.0634 H       1  ZINC001082278299    0.0800
     40 H40        -6.7251    3.8280   54.6476 H       1  ZINC001082278299    0.0900
     41 H41        -5.4327    3.5782   55.8494 H       1  ZINC001082278299    0.0700
     42 H42        -8.3303    3.0368   53.8038 H       1  ZINC001082278299    0.1000
     43 H43        -7.0049    1.8653   53.6061 H       1  ZINC001082278299    0.1000
     44 H44       -10.5383    2.3048   53.7250 H       1  ZINC001082278299    0.1100
     45 H45       -11.8370   -0.0199   53.5277 H       1  ZINC001082278299    0.0600
     46 H46       -11.9246    1.0252   52.0925 H       1  ZINC001082278299    0.1000
     47 H47        -9.9379   -1.5900   53.6184 H       1  ZINC001082278299    0.0600
     48 H48        -9.2274   -2.0978   52.0644 H       1  ZINC001082278299    0.1000
     49 H49        -7.9257   -0.0794   51.8933 H       1  ZINC001082278299    0.0800
     50 H50        -7.7051   -0.6680   53.5581 H       1  ZINC001082278299    0.0800
     51 H51       -10.3937    2.2721   61.3110 H       1  ZINC001082278299    0.1300
     52 H52       -11.8247    0.9447   59.6904 H       1  ZINC001082278299    0.1000
     53 H53       -11.2813   -0.6233   60.4950 H       1  ZINC001082278299    0.1000
     54 H54       -12.2604    0.1675   62.6974 H       1  ZINC001082278299    0.0900
     55 H55       -12.8037    1.7356   61.8927 H       1  ZINC001082278299    0.1000
@<TRIPOS>BOND
     1     1     2    1
     2     1    27    1
     3     1    28    1
     4     1    29    1
     5     2     3    2
     6     2    24    1
     7     3     4    1
     8     3    30    1
     9     4     5    2
    10     4     6   am
    11     6     7    1
    12     6    31    1
    13     7     8    1
    14     7    32    1
    15     7    33    1
    16     8     9    1
    17     8    14    1
    18     8    10    1
    19    10    11    1
    20    10    34    1
    21    10    35    1
    22    11    12    1
    23    11    36    1
    24    11    37    1
    25    12    13    1
    26    12    38    1
    27    12    39    1
    28    13    14    1
    29    13    40    1
    30    13    41    1
    31    14    15   am
    32    15    16    2
    33    15    17    1
    34    17    18    1
    35    17    42    1
    36    17    43    1
    37    18    23    1
    38    18    19    2
    39    19    20    1
    40    19    44    1
    41    20    21    1
    42    20    45    1
    43    20    46    1
    44    21    22    1
    45    22    23    1
    46    22    47    1
    47    22    48    1
    48    23    49    1
    49    23    50    1
    50    24    26    1
    51    24    25    1
    52    24    51    1
    53    25    26    1
    54    25    52    1
    55    25    53    1
    56    26    54    1
    57    26    55    1
@<TRIPOS>SUBSTRUCTURE
     1 ZINC001082278299        1 TEMP              0 ****  ****    0 ROOT


##########                                Name:    ZINC001139743874
##########                DOCK_Rotatable_Bonds:                   5
##########                         Heavy_Atoms:                  28
##########                    Molecular_Weight:             382.506
##########                DOCK_Rotatable_Bonds:                   5
##########                       Formal_Charge:           0.0199992
##########                     HBond_Acceptors:                   6
##########                        HBond_Donors:                   0
##########                         Heavy_Atoms:                  28
##########                          Grid_Score:          -27.867891
##########                     Grid_vdw_energy:          -27.494331
##########                      Grid_es_energy:           -0.373560
##########           Internal_energy_repulsive:           15.895959

@<TRIPOS>MOLECULE
ZINC001139743874
 58 61 1 0 0
SMALL
USER_CHARGES


@<TRIPOS>ATOM
      1 C1        -11.0448   -2.5103   56.6889 C.3     1  ZINC001139743874   -0.1800
      2 C2        -11.9789   -1.6545   57.5469 C.3     1  ZINC001139743874    0.1400
      3 C3        -13.3419   -2.3407   57.6569 C.3     1  ZINC001139743874   -0.1800
      4 C4        -11.3778   -1.4873   58.9439 C.3     1  ZINC001139743874   -0.1400
      5 O5        -12.1421   -0.3498   56.9309 O.3     1  ZINC001139743874   -0.3600
      6 C6        -12.1732   -0.3086   55.5855 C.2     1  ZINC001139743874    0.6500
      7 O7        -12.9819   -0.9800   54.9757 O.2     1  ZINC001139743874   -0.5700
      8 N8        -11.3074    0.4771   54.9151 N.am    1  ZINC001139743874   -0.5900
      9 C9        -11.3264    0.5328   53.4878 C.3     1  ZINC001139743874    0.1000
     10 C10       -10.4937   -0.5593   52.7580 C.3     1  ZINC001139743874   -0.1300
     11 C11        -9.1554   -0.7805   53.5207 C.3     1  ZINC001139743874   -0.0900
     12 C12        -8.5917    0.5025   54.0369 C.3     1  ZINC001139743874   -0.0800
     13 C13        -7.0978    0.7289   53.7758 C.3     1  ZINC001139743874    0.0100
     14 N14        -7.5284    1.4544   52.5587 N.3     1  ZINC001139743874   -0.4700
     15 C15        -6.7520    2.6884   52.3792 C.3     1  ZINC001139743874    0.0600
     16 C16        -7.3601    3.5076   51.2701 C.ar    1  ZINC001139743874   -0.1200
     17 C17        -7.2237    3.0971   49.9454 C.ar    1  ZINC001139743874    0.1500
     18 N18        -7.7398    3.7851   48.9558 N.ar    1  ZINC001139743874   -0.4600
     19 C19        -8.4208    4.9120   49.1757 C.ar    1  ZINC001139743874    0.0800
     20 C20        -8.9748    5.6491   48.1098 C.ar    1  ZINC001139743874   -0.0400
     21 C21        -9.6599    6.7927   48.4029 C.ar    1  ZINC001139743874   -0.1600
     22 C22        -9.7963    7.2035   49.7279 C.ar    1  ZINC001139743874    0.1300
     23 N23        -9.2800    6.5158   50.7173 N.ar    1  ZINC001139743874   -0.4700
     24 C24        -8.5989    5.3885   50.4974 C.ar    1  ZINC001139743874    0.0800
     25 C25        -8.0496    4.6489   51.5634 C.ar    1  ZINC001139743874   -0.0400
     26 C26        -8.8467    1.7408   53.1697 C.3     1  ZINC001139743874    0.0000
     27 C27        -8.9925    0.6866   55.5038 C.3     1  ZINC001139743874   -0.1300
     28 C28       -10.3082    1.3157   55.6499 C.3     1  ZINC001139743874    0.1400
     29 H29       -11.4730   -2.6294   55.6936 H       1  ZINC001139743874    0.0900
     30 H30       -10.0738   -2.0214   56.6106 H       1  ZINC001139743874    0.0600
     31 H31       -10.9222   -3.4897   57.1513 H       1  ZINC001139743874    0.0700
     32 H32       -13.2194   -3.3201   58.1193 H       1  ZINC001139743874    0.0700
     33 H33       -14.0074   -1.7311   58.2682 H       1  ZINC001139743874    0.0600
     34 H34       -13.7701   -2.4598   56.6616 H       1  ZINC001139743874    0.0900
     35 H35       -10.4068   -0.9984   58.8655 H       1  ZINC001139743874    0.0700
     36 H36       -12.0433   -0.8776   59.5551 H       1  ZINC001139743874    0.0700
     37 H37       -11.2553   -2.4667   59.4063 H       1  ZINC001139743874    0.0800
     38 H38       -12.3618    0.4500   53.1572 H       1  ZINC001139743874    0.0700
     39 H39       -10.9526    1.5093   53.1797 H       1  ZINC001139743874    0.0900
     40 H40       -11.0577   -1.4919   52.7346 H       1  ZINC001139743874    0.0700
     41 H41       -10.2825   -0.2354   51.7389 H       1  ZINC001139743874    0.0800
     42 H42        -9.3320   -1.4537   54.3596 H       1  ZINC001139743874    0.0600
     43 H43        -8.4334   -1.2392   52.8451 H       1  ZINC001139743874    0.0700
     44 H44        -6.6129    1.3634   54.5177 H       1  ZINC001139743874    0.0700
     45 H45        -6.5437   -0.1868   53.5693 H       1  ZINC001139743874    0.0900
     46 H46        -6.7651    3.2638   53.3049 H       1  ZINC001139743874    0.0600
     47 H47        -5.7231    2.4364   52.1225 H       1  ZINC001139743874    0.0900
     48 H48        -6.6792    2.1899   49.7286 H       1  ZINC001139743874    0.1700
     49 H49        -8.8600    5.3181   47.0882 H       1  ZINC001139743874    0.1500
     50 H50       -10.0962    7.3796   47.6081 H       1  ZINC001139743874    0.1500
     51 H51       -10.3405    8.1108   49.9448 H       1  ZINC001139743874    0.1700
     52 H52        -8.1675    4.9782   52.5852 H       1  ZINC001139743874    0.1400
     53 H53        -9.6841    1.6303   52.4806 H       1  ZINC001139743874    0.1000
     54 H54        -8.8771    2.6734   53.7328 H       1  ZINC001139743874    0.0700
     55 H55        -9.0102   -0.2889   55.9899 H       1  ZINC001139743874    0.0700
     56 H56        -8.2477    1.3110   55.9973 H       1  ZINC001139743874    0.0800
     57 H57       -10.2839    2.3204   55.2278 H       1  ZINC001139743874    0.0800
     58 H58       -10.5758    1.3667   56.7053 H       1  ZINC001139743874    0.1000
@<TRIPOS>BOND
     1     1     2    1
     2     1    29    1
     3     1    30    1
     4     1    31    1
     5     2     3    1
     6     2     4    1
     7     2     5    1
     8     3    32    1
     9     3    33    1
    10     3    34    1
    11     4    35    1
    12     4    36    1
    13     4    37    1
    14     5     6    1
    15     6     7    2
    16     6     8   am
    17     8    28    1
    18     8     9    1
    19     9    10    1
    20     9    38    1
    21     9    39    1
    22    10    11    1
    23    10    40    1
    24    10    41    1
    25    11    12    1
    26    11    42    1
    27    11    43    1
    28    12    26    1
    29    12    13    1
    30    12    27    1
    31    13    14    1
    32    13    44    1
    33    13    45    1
    34    14    15    1
    35    14    26    1
    36    15    16    1
    37    15    46    1
    38    15    47    1
    39    16    25   ar
    40    16    17   ar
    41    17    18   ar
    42    17    48    1
    43    18    19   ar
    44    19    24   ar
    45    19    20   ar
    46    20    21   ar
    47    20    49    1
    48    21    22   ar
    49    21    50    1
    50    22    23   ar
    51    22    51    1
    52    23    24   ar
    53    24    25   ar
    54    25    52    1
    55    26    53    1
    56    26    54    1
    57    27    28    1
    58    27    55    1
    59    27    56    1
    60    28    57    1
    61    28    58    1
@<TRIPOS>SUBSTRUCTURE
     1 ZINC001139743874        1 TEMP              0 ****  ****    0 ROOT


##########                                Name:    ZINC000417533280
##########                DOCK_Rotatable_Bonds:                   9
##########                         Heavy_Atoms:                  26
##########                    Molecular_Weight:             367.439
##########                DOCK_Rotatable_Bonds:                   9
##########                       Formal_Charge:         -0.00999999
##########                     HBond_Acceptors:                   7
##########                        HBond_Donors:                   2
##########                         Heavy_Atoms:                  26
##########                          Grid_Score:          -27.854876
##########                     Grid_vdw_energy:          -27.354727
##########                      Grid_es_energy:           -0.500148
##########           Internal_energy_repulsive:           17.741919

@<TRIPOS>MOLECULE
ZINC000417533280
 53 54 1 0 0
SMALL
USER_CHARGES


@<TRIPOS>ATOM
      1 C1         -8.8782   -0.1597   62.4031 C.3     1  ZINC000417533280   -0.1600
      2 C2         -8.7369    0.2468   60.9349 C.3     1  ZINC000417533280   -0.1200
      3 C3         -9.9673   -0.2215   60.1553 C.3     1  ZINC000417533280   -0.1200
      4 C4        -10.0172   -1.7507   60.1517 C.3     1  ZINC000417533280   -0.1300
      5 C5        -11.0933   -2.2235   59.1724 C.3     1  ZINC000417533280    0.1200
      6 N6        -10.8057   -1.6932   57.8374 N.am    1  ZINC000417533280   -0.7300
      7 C7        -11.8148   -1.4444   56.9793 C.2     1  ZINC000417533280    0.5200
      8 O8        -12.9611   -1.6581   57.3129 O.2     1  ZINC000417533280   -0.5400
      9 C9        -11.5188   -0.9005   55.6054 C.3     1  ZINC000417533280   -0.1100
     10 C10       -11.1769    0.5877   55.7089 C.3     1  ZINC000417533280   -0.1300
     11 C11       -10.9105    1.1450   54.3071 C.3     1  ZINC000417533280    0.1300
     12 N12        -9.8705    0.3303   53.6641 N.am    1  ZINC000417533280   -0.6200
     13 C13        -8.7661    0.9073   53.1503 C.2     1  ZINC000417533280    0.7100
     14 O14        -7.9127    0.2220   52.6206 O.2     1  ZINC000417533280   -0.5600
     15 N15        -8.6078    2.2437   53.2235 N.am    1  ZINC000417533280   -0.6800
     16 C16        -7.4601    2.8432   52.6896 C.ar    1  ZINC000417533280    0.1900
     17 C17        -6.2135    2.5633   53.2324 C.ar    1  ZINC000417533280   -0.1100
     18 C18        -5.0816    3.1547   52.7047 C.ar    1  ZINC000417533280   -0.1100
     19 C19        -5.1893    4.0265   51.6354 C.ar    1  ZINC000417533280    0.0500
     20 F20        -4.0812    4.6033   51.1209 F       1  ZINC000417533280   -0.1300
     21 C21        -6.4335    4.3082   51.0909 C.ar    1  ZINC000417533280    0.0900
     22 F22        -6.5370    5.1593   50.0469 F       1  ZINC000417533280   -0.1200
     23 C23        -7.5675    3.7137   51.6133 C.ar    1  ZINC000417533280   -0.1300
     24 C24        -8.9197    4.0188   51.0220 C.3     1  ZINC000417533280   -0.1200
     25 C25       -10.0571   -1.1252   53.5922 C.3     1  ZINC000417533280    0.1100
     26 C26       -10.3332   -1.6571   55.0021 C.3     1  ZINC000417533280   -0.1200
     27 H27        -9.7720    0.3017   62.8234 H       1  ZINC000417533280    0.0500
     28 H28        -8.9619   -1.2442   62.4735 H       1  ZINC000417533280    0.0500
     29 H29        -8.0017    0.1739   62.9585 H       1  ZINC000417533280    0.0500
     30 H30        -8.6532    1.3313   60.8645 H       1  ZINC000417533280    0.0600
     31 H31        -7.8431   -0.2146   60.5146 H       1  ZINC000417533280    0.0600
     32 H32       -10.8677    0.1703   60.6282 H       1  ZINC000417533280    0.0700
     33 H33        -9.9076    0.1425   59.1296 H       1  ZINC000417533280    0.0700
     34 H34        -9.0483   -2.1451   59.8452 H       1  ZINC000417533280    0.0700
     35 H35       -10.2548   -2.1088   61.1534 H       1  ZINC000417533280    0.0700
     36 H36       -11.0992   -3.3130   59.1371 H       1  ZINC000417533280    0.0700
     37 H37       -12.0683   -1.8655   59.5033 H       1  ZINC000417533280    0.0700
     38 H38        -9.8890   -1.5211   57.5710 H       1  ZINC000417533280    0.4000
     39 H39       -12.3935   -1.0284   54.9679 H       1  ZINC000417533280    0.1000
     40 H40       -12.0127    1.1223   56.1601 H       1  ZINC000417533280    0.0800
     41 H41       -10.2875    0.7146   56.3261 H       1  ZINC000417533280    0.0800
     42 H42       -11.8257    1.1018   53.7166 H       1  ZINC000417533280    0.0700
     43 H43       -10.5707    2.1779   54.3830 H       1  ZINC000417533280    0.1000
     44 H44        -9.2886    2.7903   53.6460 H       1  ZINC000417533280    0.4100
     45 H45        -6.1283    1.8834   54.0672 H       1  ZINC000417533280    0.1700
     46 H46        -4.1121    2.9369   53.1276 H       1  ZINC000417533280    0.1500
     47 H47        -9.1362    3.3081   50.2244 H       1  ZINC000417533280    0.0800
     48 H48        -9.6818    3.9384   51.7972 H       1  ZINC000417533280    0.0700
     49 H49        -8.9190    5.0306   50.6167 H       1  ZINC000417533280    0.0800
     50 H50       -10.9027   -1.3536   52.9434 H       1  ZINC000417533280    0.0800
     51 H51        -9.1542   -1.5903   53.1965 H       1  ZINC000417533280    0.0800
     52 H52        -9.4516   -1.5091   55.6259 H       1  ZINC000417533280    0.0800
     53 H53       -10.5684   -2.7202   54.9503 H       1  ZINC000417533280    0.0900
@<TRIPOS>BOND
     1     1     2    1
     2     1    27    1
     3     1    28    1
     4     1    29    1
     5     2     3    1
     6     2    30    1
     7     2    31    1
     8     3     4    1
     9     3    32    1
    10     3    33    1
    11     4     5    1
    12     4    34    1
    13     4    35    1
    14     5     6    1
    15     5    36    1
    16     5    37    1
    17     6     7   am
    18     6    38    1
    19     7     8    2
    20     7     9    1
    21     9    26    1
    22     9    10    1
    23     9    39    1
    24    10    11    1
    25    10    40    1
    26    10    41    1
    27    11    12    1
    28    11    42    1
    29    11    43    1
    30    12    13   am
    31    12    25    1
    32    13    14    2
    33    13    15   am
    34    15    16    1
    35    15    44    1
    36    16    23   ar
    37    16    17   ar
    38    17    18   ar
    39    17    45    1
    40    18    19   ar
    41    18    46    1
    42    19    20    1
    43    19    21   ar
    44    21    22    1
    45    21    23   ar
    46    23    24    1
    47    24    47    1
    48    24    48    1
    49    24    49    1
    50    25    26    1
    51    25    50    1
    52    25    51    1
    53    26    52    1
    54    26    53    1
@<TRIPOS>SUBSTRUCTURE
     1 ZINC000417533280        1 TEMP              0 ****  ****    0 ROOT


##########                                Name:    ZINC000373864439
##########                DOCK_Rotatable_Bonds:                   7
##########                         Heavy_Atoms:                  23
##########                    Molecular_Weight:              344.45
##########                DOCK_Rotatable_Bonds:                   7
##########                       Formal_Charge:          -0.0300001
##########                     HBond_Acceptors:                   7
##########                        HBond_Donors:                   1
##########                         Heavy_Atoms:                  23
##########                          Grid_Score:          -27.850985
##########                     Grid_vdw_energy:          -27.383049
##########                      Grid_es_energy:           -0.467936
##########           Internal_energy_repulsive:           22.010525

@<TRIPOS>MOLECULE
ZINC000373864439
 48 49 1 0 0
SMALL
USER_CHARGES


@<TRIPOS>ATOM
      1 C1        -10.8091    1.6059   52.5979 C.3     1  ZINC000373864439   -0.1500
      2 C2         -9.3755    1.0946   52.7545 C.3     1  ZINC000373864439   -0.6300
      3 S3         -9.3553   -0.7110   52.5817 S.o2    1  ZINC000373864439    2.6100
      4 O4        -10.1960   -1.1189   51.5111 O.2     1  ZINC000373864439   -0.9500
      5 O5         -8.0298   -1.2087   52.7027 O.2     1  ZINC000373864439   -0.9600
      6 N6        -10.1251   -1.2647   53.9393 N.am    1  ZINC000373864439   -1.1200
      7 C7         -9.5868   -0.9521   55.2655 C.3     1  ZINC000373864439    0.1100
      8 C8        -10.6742   -0.2904   56.1143 C.3     1  ZINC000373864439    0.0500
      9 N9        -10.1962   -0.1446   57.4956 N.3     1  ZINC000373864439   -0.5300
     10 C10       -10.6391   -1.2709   58.3274 C.3     1  ZINC000373864439    0.0400
     11 C11       -10.0050   -1.1617   59.7159 C.3     1  ZINC000373864439   -0.1300
     12 C12       -10.4193    0.1651   60.3579 C.3     1  ZINC000373864439    0.1800
     13 F13       -11.8085    0.1916   60.5217 F       1  ZINC000373864439   -0.2100
     14 C14        -9.7511    0.3049   61.7015 C.ar    1  ZINC000373864439   -0.1500
     15 C15        -8.5259   -0.2906   61.9294 C.ar    1  ZINC000373864439   -0.0700
     16 C16        -7.9124   -0.1630   63.1623 C.ar    1  ZINC000373864439   -0.1600
     17 C17        -8.5233    0.5607   64.1693 C.ar    1  ZINC000373864439   -0.0700
     18 C18        -9.7487    1.1586   63.9462 C.ar    1  ZINC000373864439   -0.2100
     19 C19       -10.3636    1.0367   62.7088 C.ar    1  ZINC000373864439    0.1400
     20 O20       -11.5689    1.6238   62.4868 O.3     1  ZINC000373864439   -0.3100
     21 C21       -12.5968    1.3788   63.4488 C.3     1  ZINC000373864439    0.0200
     22 C22        -9.9892    1.3195   59.4486 C.3     1  ZINC000373864439   -0.1300
     23 C23       -10.6239    1.1384   58.0679 C.3     1  ZINC000373864439    0.0600
     24 H24       -11.4399    1.1602   53.3671 H       1  ZINC000373864439    0.0700
     25 H25       -10.8212    2.6908   52.7017 H       1  ZINC000373864439    0.0800
     26 H26       -11.1874    1.3309   51.6134 H       1  ZINC000373864439    0.0700
     27 H27        -8.7448    1.5402   51.9853 H       1  ZINC000373864439    0.1300
     28 H28        -8.9972    1.3696   53.7391 H       1  ZINC000373864439    0.1300
     29 H29       -10.9324   -1.7961   53.8565 H       1  ZINC000373864439    0.4200
     30 H30        -9.2569   -1.8714   55.7497 H       1  ZINC000373864439    0.0700
     31 H31        -8.7413   -0.2717   55.1633 H       1  ZINC000373864439    0.0900
     32 H32       -10.9070    0.6926   55.7047 H       1  ZINC000373864439    0.0900
     33 H33       -11.5709   -0.9101   56.1036 H       1  ZINC000373864439    0.0400
     34 H34       -11.7249   -1.2482   58.4212 H       1  ZINC000373864439    0.0400
     35 H35       -10.3345   -2.2081   57.8617 H       1  ZINC000373864439    0.0900
     36 H36       -10.3462   -1.9892   60.3379 H       1  ZINC000373864439    0.0800
     37 H37        -8.9195   -1.1982   59.6241 H       1  ZINC000373864439    0.1000
     38 H38        -8.0466   -0.8566   61.1443 H       1  ZINC000373864439    0.1300
     39 H39        -6.9547   -0.6300   63.3387 H       1  ZINC000373864439    0.1300
     40 H40        -8.0424    0.6586   65.1313 H       1  ZINC000373864439    0.1300
     41 H41       -10.2257    1.7237   64.7334 H       1  ZINC000373864439    0.1300
     42 H42       -13.5046    1.9045   63.1526 H       1  ZINC000373864439    0.1000
     43 H43       -12.7976    0.3086   63.5014 H       1  ZINC000373864439    0.0600
     44 H44       -12.2725    1.7361   64.4262 H       1  ZINC000373864439    0.0600
     45 H45       -10.3193    2.2647   59.8796 H       1  ZINC000373864439    0.0800
     46 H46        -8.9035    1.3220   59.3526 H       1  ZINC000373864439    0.1000
     47 H47       -10.3081    1.9511   57.4137 H       1  ZINC000373864439    0.0800
     48 H48       -11.7096    1.1499   58.1629 H       1  ZINC000373864439    0.0400
@<TRIPOS>BOND
     1     1     2    1
     2     1    24    1
     3     1    25    1
     4     1    26    1
     5     2     3    1
     6     2    27    1
     7     2    28    1
     8     3     4    2
     9     3     5    2
    10     3     6   am
    11     6     7    1
    12     6    29    1
    13     7     8    1
    14     7    30    1
    15     7    31    1
    16     8     9    1
    17     8    32    1
    18     8    33    1
    19     9    23    1
    20     9    10    1
    21    10    11    1
    22    10    34    1
    23    10    35    1
    24    11    12    1
    25    11    36    1
    26    11    37    1
    27    12    13    1
    28    12    14    1
    29    12    22    1
    30    14    19   ar
    31    14    15   ar
    32    15    16   ar
    33    15    38    1
    34    16    17   ar
    35    16    39    1
    36    17    18   ar
    37    17    40    1
    38    18    19   ar
    39    18    41    1
    40    19    20    1
    41    20    21    1
    42    21    42    1
    43    21    43    1
    44    21    44    1
    45    22    23    1
    46    22    45    1
    47    22    46    1
    48    23    47    1
    49    23    48    1
@<TRIPOS>SUBSTRUCTURE
     1 ZINC000373864439        1 TEMP              0 ****  ****    0 ROOT


##########                                Name:    ZINC000186105981
##########                DOCK_Rotatable_Bonds:                   6
##########                         Heavy_Atoms:                  26
##########                    Molecular_Weight:             396.873
##########                DOCK_Rotatable_Bonds:                   6
##########                       Formal_Charge:          -0.0400003
##########                     HBond_Acceptors:                   9
##########                        HBond_Donors:                   1
##########                         Heavy_Atoms:                  26
##########                          Grid_Score:          -27.839548
##########                     Grid_vdw_energy:          -26.490887
##########                      Grid_es_energy:           -1.348662
##########           Internal_energy_repulsive:           13.634198

@<TRIPOS>MOLECULE
ZINC000186105981
 44 46 1 0 0
SMALL
USER_CHARGES


@<TRIPOS>ATOM
      1 C1         -8.7666    1.8764   66.6570 C.3     1  ZINC000186105981   -0.1400
      2 C2         -8.6943    1.3494   65.2224 C.3     1  ZINC000186105981   -0.1100
      3 C3         -8.0752   -0.0498   65.2238 C.3     1  ZINC000186105981   -0.1600
      4 C4        -10.1041    1.2826   64.6319 C.3     1  ZINC000186105981    0.1600
      5 H5        -10.6955    0.5530   65.1849 H       1  ZINC000186105981    0.1200
      6 C6        -10.0235    0.8707   63.1845 C.2     1  ZINC000186105981    0.4900
      7 O7        -10.9311    0.2431   62.6811 O.2     1  ZINC000186105981   -0.4300
      8 N8         -8.9428    1.1995   62.4494 N.am    1  ZINC000186105981   -0.6300
      9 C9         -8.8685    0.8196   61.1147 C.2     1  ZINC000186105981    0.2400
     10 N10        -8.3666   -0.2934   60.6607 N.2     1  ZINC000186105981   -0.2600
     11 N11        -8.3807   -0.4775   59.4132 N.2     1  ZINC000186105981   -0.2000
     12 C12        -8.8968    0.4598   58.6686 C.2     1  ZINC000186105981    0.0300
     13 C13        -9.0093    0.4381   57.1950 C.ar    1  ZINC000186105981   -0.0500
     14 C14        -8.2164    1.2864   56.4177 C.ar    1  ZINC000186105981    0.1300
     15 F15        -7.3437    2.1301   57.0110 F       1  ZINC000186105981   -0.1200
     16 C16        -8.3271    1.2599   55.0401 C.ar    1  ZINC000186105981   -0.1400
     17 C17        -9.2198    0.3964   54.4317 C.ar    1  ZINC000186105981   -0.0600
     18 C18       -10.0081   -0.4459   55.1956 C.ar    1  ZINC000186105981   -0.1200
     19 C19        -9.9045   -0.4347   56.5723 C.ar    1  ZINC000186105981    0.0200
     20 Cl20      -10.8946   -1.4931   57.5279 Cl      1  ZINC000186105981   -0.0100
     21 S21        -9.4442    1.7558   59.7340 S.3     1  ZINC000186105981    0.1200
     22 N22       -10.7375    2.6000   64.7301 N.am    1  ZINC000186105981   -0.6100
     23 C23       -10.1334    3.8473   64.2470 C.3     1  ZINC000186105981    0.1000
     24 C24       -11.2959    4.8607   64.1579 C.3     1  ZINC000186105981   -0.1300
     25 C25       -12.2895    4.2931   65.1978 C.3     1  ZINC000186105981   -0.1600
     26 C26       -11.9491    2.8209   65.2688 C.2     1  ZINC000186105981    0.5200
     27 O27       -12.6622    1.9653   65.7486 O.2     1  ZINC000186105981   -0.5000
     28 H28        -7.7622    1.9239   67.0776 H       1  ZINC000186105981    0.0600
     29 H29        -9.2077    2.8731   66.6560 H       1  ZINC000186105981    0.0600
     30 H30        -9.3816    1.2076   67.2592 H       1  ZINC000186105981    0.0600
     31 H31        -8.0793    2.0182   64.6202 H       1  ZINC000186105981    0.0900
     32 H32        -8.7374   -0.7397   65.7470 H       1  ZINC000186105981    0.0600
     33 H33        -7.9374   -0.3871   64.1965 H       1  ZINC000186105981    0.0600
     34 H34        -7.1097   -0.0195   65.7288 H       1  ZINC000186105981    0.0700
     35 H35        -8.2169    1.7014   62.8520 H       1  ZINC000186105981    0.4200
     36 H36        -7.7154    1.9150   54.4377 H       1  ZINC000186105981    0.1500
     37 H37        -9.3021    0.3798   53.3550 H       1  ZINC000186105981    0.1500
     38 H38       -10.7033   -1.1172   54.7133 H       1  ZINC000186105981    0.1500
     39 H39        -9.3797    4.1989   64.9516 H       1  ZINC000186105981    0.0700
     40 H40        -9.6893    3.6951   63.2633 H       1  ZINC000186105981    0.0800
     41 H41       -10.9647    5.8601   64.4398 H       1  ZINC000186105981    0.0900
     42 H42       -11.7349    4.8639   63.1602 H       1  ZINC000186105981    0.0800
     43 H43       -12.1414    4.7700   66.1667 H       1  ZINC000186105981    0.1100
     44 H44       -13.3163    4.4284   64.8579 H       1  ZINC000186105981    0.1000
@<TRIPOS>BOND
     1     1     2    1
     2     1    28    1
     3     1    29    1
     4     1    30    1
     5     2     3    1
     6     2     4    1
     7     2    31    1
     8     3    32    1
     9     3    33    1
    10     3    34    1
    11     4     5    1
    12     4     6    1
    13     4    22    1
    14     6     7    2
    15     6     8   am
    16     8     9    1
    17     8    35    1
    18     9    21    1
    19     9    10    2
    20    10    11    1
    21    11    12    2
    22    12    13    1
    23    12    21    1
    24    13    19   ar
    25    13    14   ar
    26    14    15    1
    27    14    16   ar
    28    16    17   ar
    29    16    36    1
    30    17    18   ar
    31    17    37    1
    32    18    19   ar
    33    18    38    1
    34    19    20    1
    35    22    26   am
    36    22    23    1
    37    23    24    1
    38    23    39    1
    39    23    40    1
    40    24    25    1
    41    24    41    1
    42    24    42    1
    43    25    26    1
    44    25    43    1
    45    25    44    1
    46    26    27    2
@<TRIPOS>SUBSTRUCTURE
     1 ZINC000186105981        1 TEMP              0 ****  ****    0 ROOT


##########                                Name:    ZINC000089894387
##########                DOCK_Rotatable_Bonds:                   8
##########                         Heavy_Atoms:                  22
##########                    Molecular_Weight:             326.823
##########                DOCK_Rotatable_Bonds:                   8
##########                       Formal_Charge:          -0.0300003
##########                     HBond_Acceptors:                   6
##########                        HBond_Donors:                   2
##########                         Heavy_Atoms:                  22
##########                          Grid_Score:          -27.813534
##########                     Grid_vdw_energy:          -28.796715
##########                      Grid_es_energy:            0.983182
##########           Internal_energy_repulsive:           12.742661

@<TRIPOS>MOLECULE
ZINC000089894387
 45 46 1 0 0
SMALL
USER_CHARGES


@<TRIPOS>ATOM
      1 C1         -8.1141    0.5110   65.9392 C.3     1  ZINC000089894387   -0.1700
      2 C2         -8.9820    0.8891   64.7372 C.3     1  ZINC000089894387    0.1700
      3 H3         -8.6336    1.8341   64.3204 H       1  ZINC000089894387    0.0900
      4 N4         -8.8875   -0.1587   63.7178 N.am    1  ZINC000089894387   -0.7400
      5 C5         -8.6549    0.1712   62.4319 C.2     1  ZINC000089894387    0.7100
      6 O6         -8.5251    1.3385   62.1176 O.2     1  ZINC000089894387   -0.5900
      7 N7         -8.5663   -0.7929   61.4942 N.am    1  ZINC000089894387   -0.7500
      8 C8         -8.3118   -0.4344   60.0968 C.3     1  ZINC000089894387    0.1400
      9 C9         -9.5856   -0.6456   59.2760 C.3     1  ZINC000089894387    0.0500
     10 O10        -9.9036   -2.0383   59.2398 O.3     1  ZINC000089894387   -0.3100
     11 C11       -11.1784   -2.3717   58.9072 C.ar    1  ZINC000089894387    0.1400
     12 C12       -11.4525   -2.9095   57.6582 C.ar    1  ZINC000089894387   -0.2100
     13 C13       -12.7492   -3.2477   57.3218 C.ar    1  ZINC000089894387   -0.0700
     14 C14       -13.7738   -3.0509   58.2285 C.ar    1  ZINC000089894387   -0.1500
     15 C15       -13.5036   -2.5141   59.4754 C.ar    1  ZINC000089894387    0.0000
     16 Cl16      -14.7925   -2.2682   60.6119 Cl      1  ZINC000089894387   -0.0600
     17 C17       -12.2067   -2.1799   59.8185 C.ar    1  ZINC000089894387   -0.1500
     18 C18       -10.4377    1.0351   65.1850 C.3     1  ZINC000089894387   -0.1000
     19 C19       -10.5646    2.2310   66.1337 C.3     1  ZINC000089894387   -0.1600
     20 C20       -12.0359    2.4171   66.5138 C.3     1  ZINC000089894387    0.0600
     21 O21       -12.8131    2.6008   65.3288 O.3     1  ZINC000089894387   -0.3800
     22 C22       -12.7706    1.4942   64.4256 C.3     1  ZINC000089894387    0.0600
     23 C23       -11.3289    1.2710   63.9616 C.3     1  ZINC000089894387   -0.1500
     24 H24        -8.4626   -0.4340   66.3561 H       1  ZINC000089894387    0.0600
     25 H25        -7.0771    0.4070   65.6202 H       1  ZINC000089894387    0.0600
     26 H26        -8.1845    1.2906   66.6978 H       1  ZINC000089894387    0.0700
     27 H27        -8.9923   -1.0900   63.9683 H       1  ZINC000089894387    0.3900
     28 H28        -8.6712   -1.7242   61.7448 H       1  ZINC000089894387    0.4000
     29 H29        -8.0116    0.6118   60.0389 H       1  ZINC000089894387    0.0800
     30 H30        -7.5153   -1.0636   59.6996 H       1  ZINC000089894387    0.0900
     31 H31       -10.4085   -0.0969   59.7344 H       1  ZINC000089894387    0.0900
     32 H32        -9.4280   -0.2825   58.2604 H       1  ZINC000089894387    0.0700
     33 H33       -10.6527   -3.0633   56.9490 H       1  ZINC000089894387    0.1300
     34 H34       -12.9625   -3.6660   56.3493 H       1  ZINC000089894387    0.1400
     35 H35       -14.7866   -3.3160   57.9636 H       1  ZINC000089894387    0.1400
     36 H36       -11.9958   -1.7615   60.7915 H       1  ZINC000089894387    0.1400
     37 H37       -10.7545    0.1265   65.6970 H       1  ZINC000089894387    0.0800
     38 H38        -9.9765    2.0467   67.0327 H       1  ZINC000089894387    0.0700
     39 H39       -10.2003    3.1302   65.6369 H       1  ZINC000089894387    0.0800
     40 H40       -12.3883    1.5337   67.0462 H       1  ZINC000089894387    0.0500
     41 H41       -12.1378    3.2927   67.1548 H       1  ZINC000089894387    0.0900
     42 H42       -13.1326    0.5987   64.9308 H       1  ZINC000089894387    0.0500
     43 H43       -13.4018    1.7050   63.5625 H       1  ZINC000089894387    0.1000
     44 H44       -10.9799    2.1509   63.4210 H       1  ZINC000089894387    0.0800
     45 H45       -11.2874    0.4002   63.3073 H       1  ZINC000089894387    0.0800
@<TRIPOS>BOND
     1     1     2    1
     2     1    24    1
     3     1    25    1
     4     1    26    1
     5     2     3    1
     6     2     4    1
     7     2    18    1
     8     4     5   am
     9     4    27    1
    10     5     6    2
    11     5     7   am
    12     7     8    1
    13     7    28    1
    14     8     9    1
    15     8    29    1
    16     8    30    1
    17     9    10    1
    18     9    31    1
    19     9    32    1
    20    10    11    1
    21    11    17   ar
    22    11    12   ar
    23    12    13   ar
    24    12    33    1
    25    13    14   ar
    26    13    34    1
    27    14    15   ar
    28    14    35    1
    29    15    16    1
    30    15    17   ar
    31    17    36    1
    32    18    23    1
    33    18    19    1
    34    18    37    1
    35    19    20    1
    36    19    38    1
    37    19    39    1
    38    20    21    1
    39    20    40    1
    40    20    41    1
    41    21    22    1
    42    22    23    1
    43    22    42    1
    44    22    43    1
    45    23    44    1
    46    23    45    1
@<TRIPOS>SUBSTRUCTURE
     1 ZINC000089894387        1 TEMP              0 ****  ****    0 ROOT


##########                                Name:    ZINC000288921983
##########                DOCK_Rotatable_Bonds:                   6
##########                         Heavy_Atoms:                  26
##########                    Molecular_Weight:             356.428
##########                DOCK_Rotatable_Bonds:                   6
##########                       Formal_Charge:           0.0199997
##########                     HBond_Acceptors:                   8
##########                        HBond_Donors:                   1
##########                         Heavy_Atoms:                  26
##########                          Grid_Score:          -27.812431
##########                     Grid_vdw_energy:          -24.281967
##########                      Grid_es_energy:           -3.530464
##########           Internal_energy_repulsive:           61.745621

@<TRIPOS>MOLECULE
ZINC000288921983
 50 53 1 0 0
SMALL
USER_CHARGES


@<TRIPOS>ATOM
      1 C1         -6.6457    7.5428   49.7940 C.3     1  ZINC000288921983   -0.1400
      2 C2         -7.4511    6.9212   50.9367 C.3     1  ZINC000288921983   -0.0500
      3 C3         -8.5717    6.0898   50.3674 C.ar    1  ZINC000288921983    0.3000
      4 N4         -8.3700    5.4254   49.2472 N.ar    1  ZINC000288921983   -0.5000
      5 C5         -9.3280    4.6845   48.7152 C.ar    1  ZINC000288921983    0.1300
      6 C6        -10.5617    4.6135   49.3566 C.ar    1  ZINC000288921983    0.0500
      7 N7        -11.6026    3.8407   48.8280 N.am    1  ZINC000288921983   -0.6700
      8 C8        -12.1926    2.8957   49.5864 C.2     1  ZINC000288921983    0.7100
      9 O9        -11.8207    2.7141   50.7297 O.2     1  ZINC000288921983   -0.5500
     10 N10       -13.1946    2.1518   49.0776 N.am    1  ZINC000288921983   -0.6200
     11 C11       -13.6548    2.3594   47.6978 C.3     1  ZINC000288921983    0.1100
     12 C12       -13.6176    1.0181   46.9585 C.3     1  ZINC000288921983   -0.1400
     13 C13       -14.4296   -0.0149   47.7432 C.3     1  ZINC000288921983   -0.1200
     14 C14       -13.8082   -0.2094   49.1282 C.3     1  ZINC000288921983   -0.1300
     15 C15       -13.8435    1.1138   49.8901 C.3     1  ZINC000288921983    0.2700
     16 H16       -14.8784    1.3994   50.0786 H       1  ZINC000288921983    0.1100
     17 C17       -13.1146    0.9620   51.2003 C.2     1  ZINC000288921983    0.1700
     18 N18       -13.4366    1.5229   52.3311 N.2     1  ZINC000288921983   -0.2500
     19 N19       -12.5940    1.1708   53.2376 N.2     1  ZINC000288921983   -0.2700
     20 C20       -11.7059    0.3732   52.7158 C.2     1  ZINC000288921983    0.1800
     21 C21       -10.5459   -0.2635   53.4371 C.3     1  ZINC000288921983   -0.0300
     22 C22        -9.4523   -0.7953   52.4959 C.3     1  ZINC000288921983   -0.1200
     23 C23        -8.8097    0.5991   52.5826 C.3     1  ZINC000288921983   -0.1400
     24 C24        -9.5061    0.7489   53.9454 C.3     1  ZINC000288921983   -0.1200
     25 O25       -12.0167    0.2185   51.4179 O.3     1  ZINC000288921983   -0.2200
     26 C26       -10.7330    5.3306   50.5376 C.ar    1  ZINC000288921983    0.1600
     27 N27        -9.7231    6.0441   51.0072 N.ar    1  ZINC000288921983   -0.5000
     28 H28        -5.8352    8.1441   50.2058 H       1  ZINC000288921983    0.0700
     29 H29        -6.2303    6.7515   49.1699 H       1  ZINC000288921983    0.0600
     30 H30        -7.2980    8.1756   49.1921 H       1  ZINC000288921983    0.0600
     31 H31        -6.7989    6.2884   51.5387 H       1  ZINC000288921983    0.0900
     32 H32        -7.8666    7.7124   51.5608 H       1  ZINC000288921983    0.0900
     33 H33        -9.1558    4.1431   47.7968 H       1  ZINC000288921983    0.1700
     34 H34       -11.8992    3.9856   47.9158 H       1  ZINC000288921983    0.4100
     35 H35       -14.6749    2.7435   47.7066 H       1  ZINC000288921983    0.0800
     36 H36       -12.9985    3.0710   47.1968 H       1  ZINC000288921983    0.0800
     37 H37       -14.0468    1.1389   45.9639 H       1  ZINC000288921983    0.0900
     38 H38       -12.5853    0.6794   46.8712 H       1  ZINC000288921983    0.0700
     39 H39       -15.4558    0.3359   47.8516 H       1  ZINC000288921983    0.0700
     40 H40       -14.4251   -0.9638   47.2068 H       1  ZINC000288921983    0.0800
     41 H41       -14.3732   -0.9623   49.6779 H       1  ZINC000288921983    0.0900
     42 H42       -12.7741   -0.5365   49.0204 H       1  ZINC000288921983    0.0900
     43 H43       -10.8610   -0.9828   54.1931 H       1  ZINC000288921983    0.1000
     44 H44        -8.8433   -1.5848   52.9363 H       1  ZINC000288921983    0.1000
     45 H45        -9.8175   -1.0466   51.5002 H       1  ZINC000288921983    0.0800
     46 H46        -7.7220    0.5753   52.6483 H       1  ZINC000288921983    0.0700
     47 H47        -9.1740    1.2954   51.8272 H       1  ZINC000288921983    0.1000
     48 H48        -9.9147    1.7443   54.1200 H       1  ZINC000288921983    0.0700
     49 H49        -8.9117    0.3816   54.7822 H       1  ZINC000288921983    0.1000
     50 H50       -11.6752    5.3015   51.0646 H       1  ZINC000288921983    0.1800
@<TRIPOS>BOND
     1     1     2    1
     2     1    28    1
     3     1    29    1
     4     1    30    1
     5     2     3    1
     6     2    31    1
     7     2    32    1
     8     3    27   ar
     9     3     4   ar
    10     4     5   ar
    11     5     6   ar
    12     5    33    1
    13     6     7    1
    14     6    26   ar
    15     7     8   am
    16     7    34    1
    17     8     9    2
    18     8    10   am
    19    10    15    1
    20    10    11    1
    21    11    12    1
    22    11    35    1
    23    11    36    1
    24    12    13    1
    25    12    37    1
    26    12    38    1
    27    13    14    1
    28    13    39    1
    29    13    40    1
    30    14    15    1
    31    14    41    1
    32    14    42    1
    33    15    16    1
    34    15    17    1
    35    17    25    1
    36    17    18    2
    37    18    19    1
    38    19    20    2
    39    20    21    1
    40    20    25    1
    41    21    24    1
    42    21    22    1
    43    21    43    1
    44    22    23    1
    45    22    44    1
    46    22    45    1
    47    23    24    1
    48    23    46    1
    49    23    47    1
    50    24    48    1
    51    24    49    1
    52    26    27   ar
    53    26    50    1
@<TRIPOS>SUBSTRUCTURE
     1 ZINC000288921983        1 TEMP              0 ****  ****    0 ROOT


##########                                Name:    ZINC001356153960
##########                DOCK_Rotatable_Bonds:                   8
##########                         Heavy_Atoms:                  24
##########                    Molecular_Weight:             334.366
##########                DOCK_Rotatable_Bonds:                   8
##########                       Formal_Charge:           0.0100003
##########                     HBond_Acceptors:                   6
##########                        HBond_Donors:                   1
##########                         Heavy_Atoms:                  24
##########                          Grid_Score:          -27.790497
##########                     Grid_vdw_energy:          -27.505289
##########                      Grid_es_energy:           -0.285208
##########           Internal_energy_repulsive:           14.232869

@<TRIPOS>MOLECULE
ZINC001356153960
 44 46 1 0 0
SMALL
USER_CHARGES


@<TRIPOS>ATOM
      1 O1         -8.3946   -0.9733   60.3827 O.2     1  ZINC001356153960   -0.5200
      2 C2         -8.5894    0.2222   60.4572 C.2     1  ZINC001356153960    0.5100
      3 N3         -8.5697    0.8345   61.6578 N.am    1  ZINC001356153960   -0.7000
      4 C4         -8.3071    0.0580   62.8719 C.3     1  ZINC001356153960    0.1300
      5 C5         -8.6977    0.8832   64.0997 C.3     1  ZINC001356153960   -0.0800
      6 H6         -8.0741    1.7743   64.1713 H       1  ZINC001356153960    0.0900
      7 C7        -10.1578    1.2664   64.0335 C.2     1  ZINC001356153960   -0.1700
      8 C8        -10.7447    1.0823   65.1847 C.2     1  ZINC001356153960   -0.1600
      9 C9         -9.7737    0.5457   66.2107 C.3     1  ZINC001356153960   -0.1000
     10 C10        -8.5698    0.0317   65.3840 C.3     1  ZINC001356153960   -0.1200
     11 C11        -8.8573    1.0144   59.2188 C.2     1  ZINC001356153960    0.5100
     12 O12        -8.1972    2.0035   58.9765 O.2     1  ZINC001356153960   -0.5100
     13 N13        -9.8320    0.6303   58.3708 N.am    1  ZINC001356153960   -0.5500
     14 C14       -10.0947    1.4069   57.1567 C.3     1  ZINC001356153960    0.1300
     15 C15        -9.4935    0.7009   55.9689 C.ar    1  ZINC001356153960   -0.1600
     16 C16       -10.2237   -0.2578   55.2928 C.ar    1  ZINC001356153960   -0.0300
     17 C17        -9.6755   -0.9022   54.1996 C.ar    1  ZINC001356153960   -0.1700
     18 C18        -8.3897   -0.5958   53.7877 C.ar    1  ZINC001356153960    0.1400
     19 F19        -7.8523   -1.2294   52.7224 F       1  ZINC001356153960   -0.1300
     20 C20        -7.6550    0.3605   54.4678 C.ar    1  ZINC001356153960   -0.2000
     21 C21        -8.2070    1.0091   55.5587 C.ar    1  ZINC001356153960    0.1500
     22 F22        -7.4911    1.9422   56.2234 F       1  ZINC001356153960   -0.1200
     23 C23       -10.6288   -0.5638   58.6632 C.3     1  ZINC001356153960    0.0700
     24 C24       -12.1517   -0.4287   58.6045 C.3     1  ZINC001356153960   -0.1900
     25 C25       -11.4468   -0.5683   59.9562 C.3     1  ZINC001356153960   -0.1800
     26 H26        -8.7293    1.7893   61.7178 H       1  ZINC001356153960    0.4100
     27 H27        -8.8937   -0.8605   62.8498 H       1  ZINC001356153960    0.0800
     28 H28        -7.2467   -0.1895   62.9228 H       1  ZINC001356153960    0.0800
     29 H29       -10.6512    1.6427   63.1496 H       1  ZINC001356153960    0.1200
     30 H30       -11.7873    1.2864   65.3786 H       1  ZINC001356153960    0.1300
     31 H31        -9.4569    1.3406   66.8859 H       1  ZINC001356153960    0.0800
     32 H32       -10.2277   -0.2705   66.7728 H       1  ZINC001356153960    0.0700
     33 H33        -8.6734   -1.0303   65.1613 H       1  ZINC001356153960    0.0800
     34 H34        -7.6280    0.2326   65.8946 H       1  ZINC001356153960    0.0800
     35 H35       -11.1707    1.5057   57.0143 H       1  ZINC001356153960    0.0900
     36 H36        -9.6487    2.3967   57.2550 H       1  ZINC001356153960    0.1400
     37 H37       -11.2250   -0.5010   55.6162 H       1  ZINC001356153960    0.1600
     38 H38       -10.2487   -1.6484   53.6695 H       1  ZINC001356153960    0.1400
     39 H39        -6.6519    0.6000   54.1474 H       1  ZINC001356153960    0.1500
     40 H40       -10.1946   -1.5096   58.3390 H       1  ZINC001356153960    0.1400
     41 H41       -12.5608    0.5487   58.3485 H       1  ZINC001356153960    0.1400
     42 H42       -12.7194   -1.2857   58.2423 H       1  ZINC001356153960    0.0900
     43 H43       -11.5510   -1.5171   60.4824 H       1  ZINC001356153960    0.1000
     44 H44       -11.3920    0.3174   60.5893 H       1  ZINC001356153960    0.0900
@<TRIPOS>BOND
     1     1     2    2
     2     2     3   am
     3     2    11    1
     4     3     4    1
     5     3    26    1
     6     4     5    1
     7     4    27    1
     8     4    28    1
     9     5     6    1
    10     5    10    1
    11     5     7    1
    12     7     8    2
    13     7    29    1
    14     8     9    1
    15     8    30    1
    16     9    10    1
    17     9    31    1
    18     9    32    1
    19    10    33    1
    20    10    34    1
    21    11    12    2
    22    11    13   am
    23    13    14    1
    24    13    23    1
    25    14    15    1
    26    14    35    1
    27    14    36    1
    28    15    21   ar
    29    15    16   ar
    30    16    17   ar
    31    16    37    1
    32    17    18   ar
    33    17    38    1
    34    18    19    1
    35    18    20   ar
    36    20    21   ar
    37    20    39    1
    38    21    22    1
    39    23    25    1
    40    23    24    1
    41    23    40    1
    42    24    25    1
    43    24    41    1
    44    24    42    1
    45    25    43    1
    46    25    44    1
@<TRIPOS>SUBSTRUCTURE
     1 ZINC001356153960        1 TEMP              0 ****  ****    0 ROOT


##########                                Name:    ZINC000482910431
##########                DOCK_Rotatable_Bonds:                   7
##########                         Heavy_Atoms:                  29
##########                    Molecular_Weight:             414.867
##########                DOCK_Rotatable_Bonds:                   7
##########                       Formal_Charge:          -0.0300001
##########                     HBond_Acceptors:                   8
##########                        HBond_Donors:                   2
##########                         Heavy_Atoms:                  29
##########                          Grid_Score:          -27.789839
##########                     Grid_vdw_energy:          -25.418289
##########                      Grid_es_energy:           -2.371550
##########           Internal_energy_repulsive:           18.397078

@<TRIPOS>MOLECULE
ZINC000482910431
 49 51 1 0 0
SMALL
USER_CHARGES


@<TRIPOS>ATOM
      1 C1         -5.0307    3.6641   52.3748 C.3     1  ZINC000482910431   -0.1500
      2 C2         -4.4721    4.4980   53.5295 C.3     1  ZINC000482910431    0.0800
      3 C3         -3.0237    4.0867   53.8016 C.3     1  ZINC000482910431   -0.1400
      4 C4         -4.5179    5.9250   53.1714 C.1     1  ZINC000482910431    0.2100
      5 N5         -4.5531    7.0263   52.8948 N.1     1  ZINC000482910431   -0.4300
      6 C6         -5.3015    4.2636   54.7657 C.ar    1  ZINC000482910431   -0.1000
      7 C7         -6.4731    3.5339   54.6822 C.ar    1  ZINC000482910431   -0.0900
      8 C8         -7.2353    3.3169   55.8134 C.ar    1  ZINC000482910431   -0.1200
      9 C9         -6.8239    3.8322   57.0355 C.ar    1  ZINC000482910431    0.1700
     10 N10        -7.5937    3.6137   58.1836 N.am    1  ZINC000482910431   -0.6800
     11 C11        -7.7974    2.3583   58.6294 C.2     1  ZINC000482910431    0.7100
     12 O12        -7.3125    1.4156   58.0340 O.2     1  ZINC000482910431   -0.5500
     13 N13        -8.5388    2.1478   59.7352 N.am    1  ZINC000482910431   -0.7300
     14 C14        -8.7617    0.7831   60.2188 C.3     1  ZINC000482910431    0.1400
     15 H15        -7.8607    0.1828   60.0930 H       1  ZINC000482910431    0.1400
     16 C16        -9.1987    0.7991   61.7019 C.3     1  ZINC000482910431   -0.1400
     17 C17       -10.2188   -0.3604   61.7423 C.3     1  ZINC000482910431    0.0900
     18 N18       -10.7307   -0.4793   60.3720 N.am    1  ZINC000482910431   -0.5600
     19 C19       -11.9033   -1.1595   60.0233 C.ar    1  ZINC000482910431    0.2000
     20 C20       -11.8705   -2.1460   59.0468 C.ar    1  ZINC000482910431   -0.1600
     21 C21       -13.0285   -2.8167   58.7035 C.ar    1  ZINC000482910431   -0.0500
     22 C22       -14.2212   -2.5067   59.3315 C.ar    1  ZINC000482910431   -0.1000
     23 Cl23      -15.6744   -3.3516   58.8976 Cl      1  ZINC000482910431   -0.0500
     24 C24       -14.2578   -1.5228   60.3073 C.ar    1  ZINC000482910431    0.1400
     25 F25       -15.4237   -1.2220   60.9199 F       1  ZINC000482910431   -0.1200
     26 C26       -13.0998   -0.8527   60.6576 C.ar    1  ZINC000482910431   -0.1900
     27 C27        -9.9268    0.1477   59.4924 C.2     1  ZINC000482910431    0.5000
     28 O28       -10.1128    0.1982   58.2949 O.2     1  ZINC000482910431   -0.4800
     29 C29        -5.6468    4.5646   57.1159 C.ar    1  ZINC000482910431   -0.1400
     30 C30        -4.8864    4.7736   55.9821 C.ar    1  ZINC000482910431   -0.0900
     31 H31        -4.9968    2.6074   52.6400 H       1  ZINC000482910431    0.0800
     32 H32        -6.0626    3.9571   52.1810 H       1  ZINC000482910431    0.0700
     33 H33        -4.4308    3.8337   51.4806 H       1  ZINC000482910431    0.0700
     34 H34        -2.4238    4.2563   52.9074 H       1  ZINC000482910431    0.0700
     35 H35        -2.6257    4.6807   54.6242 H       1  ZINC000482910431    0.0700
     36 H36        -2.9898    3.0300   54.0668 H       1  ZINC000482910431    0.0800
     37 H37        -6.7928    3.1336   53.7314 H       1  ZINC000482910431    0.1400
     38 H38        -8.1505    2.7472   55.7475 H       1  ZINC000482910431    0.1400
     39 H39        -7.9805    4.3659   58.6584 H       1  ZINC000482910431    0.4100
     40 H40        -8.9246    2.9000   60.2107 H       1  ZINC000482910431    0.4000
     41 H41        -8.3532    0.5979   62.3598 H       1  ZINC000482910431    0.1100
     42 H42        -9.6740    1.7459   61.9583 H       1  ZINC000482910431    0.1000
     43 H43        -9.7266   -1.2854   62.0426 H       1  ZINC000482910431    0.0900
     44 H44       -11.0313   -0.1242   62.4294 H       1  ZINC000482910431    0.1000
     45 H45       -10.9400   -2.3888   58.5553 H       1  ZINC000482910431    0.1700
     46 H46       -13.0026   -3.5836   57.9435 H       1  ZINC000482910431    0.1500
     47 H47       -13.1276   -0.0863   61.4181 H       1  ZINC000482910431    0.1500
     48 H48        -5.3241    4.9667   58.0650 H       1  ZINC000482910431    0.1300
     49 H49        -3.9706    5.3428   56.0441 H       1  ZINC000482910431    0.1300
@<TRIPOS>BOND
     1     1     2    1
     2     1    31    1
     3     1    32    1
     4     1    33    1
     5     2     3    1
     6     2     4    1
     7     2     6    1
     8     3    34    1
     9     3    35    1
    10     3    36    1
    11     4     5    3
    12     6    30   ar
    13     6     7   ar
    14     7     8   ar
    15     7    37    1
    16     8     9   ar
    17     8    38    1
    18     9    10    1
    19     9    29   ar
    20    10    11   am
    21    10    39    1
    22    11    12    2
    23    11    13   am
    24    13    14    1
    25    13    40    1
    26    14    15    1
    27    14    27    1
    28    14    16    1
    29    16    17    1
    30    16    41    1
    31    16    42    1
    32    17    18    1
    33    17    43    1
    34    17    44    1
    35    18    19    1
    36    18    27   am
    37    19    26   ar
    38    19    20   ar
    39    20    21   ar
    40    20    45    1
    41    21    22   ar
    42    21    46    1
    43    22    23    1
    44    22    24   ar
    45    24    25    1
    46    24    26   ar
    47    26    47    1
    48    27    28    2
    49    29    30   ar
    50    29    48    1
    51    30    49    1
@<TRIPOS>SUBSTRUCTURE
     1 ZINC000482910431        1 TEMP              0 ****  ****    0 ROOT


##########                                Name:    ZINC000883773972
##########                DOCK_Rotatable_Bonds:                   4
##########                         Heavy_Atoms:                  23
##########                    Molecular_Weight:             343.447
##########                DOCK_Rotatable_Bonds:                   4
##########                       Formal_Charge:                0.01
##########                     HBond_Acceptors:                   8
##########                        HBond_Donors:                   1
##########                         Heavy_Atoms:                  23
##########                          Grid_Score:          -27.781851
##########                     Grid_vdw_energy:          -26.360910
##########                      Grid_es_energy:           -1.420941
##########           Internal_energy_repulsive:           16.124786

@<TRIPOS>MOLECULE
ZINC000883773972
 48 50 1 0 0
SMALL
USER_CHARGES


@<TRIPOS>ATOM
      1 C1         -9.1923    1.9927   66.2301 C.3     1  ZINC000883773972   -0.1700
      2 C2         -8.6700    0.8364   65.4170 C.2     1  ZINC000883773972    0.5300
      3 O3         -7.9779   -0.0102   65.9416 O.2     1  ZINC000883773972   -0.5400
      4 N4         -8.9719    0.7431   64.1068 N.am    1  ZINC000883773972   -0.6200
      5 C5         -8.5480   -0.3190   63.1797 C.3     1  ZINC000883773972    0.1100
      6 C6         -9.6749   -0.4655   62.1437 C.3     1  ZINC000883773972   -0.1100
      7 H7        -10.2918   -1.3432   62.3365 H       1  ZINC000883773972    0.1000
      8 C8         -9.0680   -0.4913   60.7309 C.3     1  ZINC000883773972    0.1300
      9 N9         -9.8460    0.4659   59.9274 N.am    1  ZINC000883773972   -0.6400
     10 C10       -10.1030    0.3872   58.6067 C.2     1  ZINC000883773972    0.7300
     11 O11       -10.7646    1.2507   58.0636 O.2     1  ZINC000883773972   -0.5800
     12 N12        -9.6267   -0.6487   57.8880 N.am    1  ZINC000883773972   -0.7400
     13 C13        -9.9075   -0.7351   56.4528 C.3     1  ZINC000883773972    0.1800
     14 H14        -9.4288   -1.6248   56.0434 H       1  ZINC000883773972    0.1100
     15 C15       -11.4152   -0.8262   56.2363 C.3     1  ZINC000883773972   -0.1500
     16 C16       -11.7303   -1.1676   54.7828 C.3     1  ZINC000883773972   -0.1000
     17 C17       -11.3932    0.0222   53.8811 C.3     1  ZINC000883773972   -0.5600
     18 H18       -11.9338    0.9043   54.2240 H       1  ZINC000883773972    0.1400
     19 C19       -11.7959   -0.2973   52.4401 C.3     1  ZINC000883773972   -0.1400
     20 S20        -9.6055    0.3360   53.9600 S.o2    1  ZINC000883773972    2.4200
     21 O21        -8.9198   -0.8252   53.5122 O.2     1  ZINC000883773972   -0.9200
     22 O22        -9.3355    1.5856   53.3397 O.2     1  ZINC000883773972   -0.9300
     23 C23        -9.3546    0.5074   55.7513 C.3     1  ZINC000883773972   -0.6300
     24 C24       -10.2885    1.5260   60.8482 C.3     1  ZINC000883773972    0.1100
     25 C25       -10.4903    0.8476   62.2381 C.3     1  ZINC000883773972   -0.1100
     26 H26       -11.5445    0.6803   62.4588 H       1  ZINC000883773972    0.1000
     27 C27        -9.7954    1.6797   63.3249 C.3     1  ZINC000883773972    0.1100
     28 H28        -8.8468    1.8984   67.2596 H       1  ZINC000883773972    0.0900
     29 H29        -8.8258    2.9285   65.8083 H       1  ZINC000883773972    0.0900
     30 H30       -10.2822    1.9875   66.2108 H       1  ZINC000883773972    0.0900
     31 H31        -7.6193   -0.0347   62.6847 H       1  ZINC000883773972    0.0800
     32 H32        -8.4128   -1.2557   63.7204 H       1  ZINC000883773972    0.0900
     33 H33        -8.0222   -0.1862   60.7674 H       1  ZINC000883773972    0.0700
     34 H34        -9.1518   -1.4915   60.3059 H       1  ZINC000883773972    0.0900
     35 H35        -9.0978   -1.3370   58.3210 H       1  ZINC000883773972    0.4000
     36 H36       -11.8250   -1.6011   56.8842 H       1  ZINC000883773972    0.0900
     37 H37       -11.8727    0.1306   56.4879 H       1  ZINC000883773972    0.0800
     38 H38       -11.1397   -2.0314   54.4779 H       1  ZINC000883773972    0.0900
     39 H39       -12.7902   -1.4042   54.6883 H       1  ZINC000883773972    0.0900
     40 H40       -12.8674   -0.4926   52.3971 H       1  ZINC000883773972    0.0800
     41 H41       -11.5552    0.5508   51.7991 H       1  ZINC000883773972    0.0700
     42 H42       -11.2519   -1.1775   52.0975 H       1  ZINC000883773972    0.0800
     43 H43        -9.8775    1.3943   56.1096 H       1  ZINC000883773972    0.1400
     44 H44        -8.2894    0.5999   55.9632 H       1  ZINC000883773972    0.1400
     45 H45        -9.5304    2.3064   60.9123 H       1  ZINC000883773972    0.0800
     46 H46       -11.2332    1.9485   60.5059 H       1  ZINC000883773972    0.0800
     47 H47       -10.5390    2.1688   63.9542 H       1  ZINC000883773972    0.0900
     48 H48        -9.1442    2.4243   62.8669 H       1  ZINC000883773972    0.0700
@<TRIPOS>BOND
     1     1     2    1
     2     1    28    1
     3     1    29    1
     4     1    30    1
     5     2     3    2
     6     2     4   am
     7     4    27    1
     8     4     5    1
     9     5     6    1
    10     5    31    1
    11     5    32    1
    12     6     7    1
    13     6    25    1
    14     6     8    1
    15     8     9    1
    16     8    33    1
    17     8    34    1
    18     9    10   am
    19     9    24    1
    20    10    11    2
    21    10    12   am
    22    12    13    1
    23    12    35    1
    24    13    14    1
    25    13    23    1
    26    13    15    1
    27    15    16    1
    28    15    36    1
    29    15    37    1
    30    16    17    1
    31    16    38    1
    32    16    39    1
    33    17    18    1
    34    17    19    1
    35    17    20    1
    36    19    40    1
    37    19    41    1
    38    19    42    1
    39    20    21    2
    40    20    22    2
    41    20    23    1
    42    23    43    1
    43    23    44    1
    44    24    25    1
    45    24    45    1
    46    24    46    1
    47    25    26    1
    48    25    27    1
    49    27    47    1
    50    27    48    1
@<TRIPOS>SUBSTRUCTURE
     1 ZINC000883773972        1 TEMP              0 ****  ****    0 ROOT


##########                                Name:    ZINC000077537368
##########                DOCK_Rotatable_Bonds:                   5
##########                         Heavy_Atoms:                  27
##########                    Molecular_Weight:             365.478
##########                DOCK_Rotatable_Bonds:                   5
##########                       Formal_Charge:          -0.0400007
##########                     HBond_Acceptors:                   6
##########                        HBond_Donors:                   0
##########                         Heavy_Atoms:                  27
##########                          Grid_Score:          -27.779964
##########                     Grid_vdw_energy:          -27.842344
##########                      Grid_es_energy:            0.062380
##########           Internal_energy_repulsive:           16.960665

@<TRIPOS>MOLECULE
ZINC000077537368
 54 56 1 0 0
SMALL
USER_CHARGES


@<TRIPOS>ATOM
      1 C1         -2.4971    3.6202   53.3300 C.3     1  ZINC000077537368    0.0800
      2 N2         -1.8122    3.9423   54.5843 N.pl3   1  ZINC000077537368   -0.2600
      3 N3         -2.1751    3.5422   55.7497 N.2     1  ZINC000077537368   -0.2700
      4 C4         -1.3643    3.9939   56.6723 C.2     1  ZINC000077537368    0.0400
      5 C5         -1.4713    3.7329   58.1526 C.3     1  ZINC000077537368    0.0200
      6 C6         -2.9385    3.5132   58.5271 C.3     1  ZINC000077537368   -0.1400
      7 C7         -0.6613    2.4852   58.5104 C.3     1  ZINC000077537368   -0.1400
      8 C8         -0.9228    4.9354   58.9235 C.3     1  ZINC000077537368   -0.1400
      9 C9         -0.3818    4.7604   56.0413 C.2     1  ZINC000077537368   -0.2000
     10 C10        -0.6868    4.7089   54.6923 C.2     1  ZINC000077537368   -0.0400
     11 C11         0.0487    5.3576   53.5951 C.2     1  ZINC000077537368    0.5900
     12 O12        -0.4208    6.3336   53.0417 O.2     1  ZINC000077537368   -0.5400
     13 N13         1.2426    4.8700   53.2033 N.am    1  ZINC000077537368   -0.6000
     14 C14         1.8255    3.6872   53.8547 C.3     1  ZINC000077537368    0.0800
     15 C15         2.2229    2.6804   52.7700 C.3     1  ZINC000077537368    0.0400
     16 N16         3.0934    3.3411   51.7883 N.3     1  ZINC000077537368   -0.5300
     17 C17         3.6352    2.3706   50.8279 C.3     1  ZINC000077537368    0.0900
     18 C18         2.5473    1.4142   50.4122 C.ar    1  ZINC000077537368   -0.0500
     19 C19         1.6761    1.7622   49.3951 C.ar    1  ZINC000077537368   -0.1200
     20 C20         0.6778    0.8916   49.0098 C.ar    1  ZINC000077537368   -0.0700
     21 C21         0.5478   -0.3432   49.6485 C.ar    1  ZINC000077537368   -0.0300
     22 C22        -0.4858   -1.2520   49.2534 C.1     1  ZINC000077537368    0.2500
     23 N23        -1.3060   -1.9730   48.9400 N.1     1  ZINC000077537368   -0.4100
     24 C24         1.4307   -0.6881   50.6738 C.ar    1  ZINC000077537368   -0.0700
     25 C25         2.4278    0.1898   51.0454 C.ar    1  ZINC000077537368   -0.1000
     26 C26         2.3876    4.4282   51.0969 C.3     1  ZINC000077537368    0.0400
     27 C27         1.9941    5.5030   52.1089 C.3     1  ZINC000077537368    0.1200
     28 H28        -2.0180    2.7585   52.8652 H       1  ZINC000077537368    0.0800
     29 H29        -3.5419    3.3876   53.5359 H       1  ZINC000077537368    0.1000
     30 H30        -2.4412    4.4747   52.6557 H       1  ZINC000077537368    0.1100
     31 H31        -3.3292    2.6566   57.9778 H       1  ZINC000077537368    0.0600
     32 H32        -3.0158    3.3244   59.5978 H       1  ZINC000077537368    0.0600
     33 H33        -3.5155    4.4021   58.2722 H       1  ZINC000077537368    0.0600
     34 H34         0.3839    2.6417   58.2436 H       1  ZINC000077537368    0.0600
     35 H35        -0.7386    2.2964   59.5811 H       1  ZINC000077537368    0.0600
     36 H36        -1.0520    1.6286   57.9611 H       1  ZINC000077537368    0.0600
     37 H37        -1.4999    5.8243   58.6687 H       1  ZINC000077537368    0.0600
     38 H38        -1.0002    4.7465   59.9943 H       1  ZINC000077537368    0.0600
     39 H39         0.1224    5.0919   58.6569 H       1  ZINC000077537368    0.0600
     40 H40         0.4428    5.2798   56.5068 H       1  ZINC000077537368    0.1700
     41 H41         2.7081    3.9801   54.4234 H       1  ZINC000077537368    0.0800
     42 H42         1.0901    3.2364   54.5210 H       1  ZINC000077537368    0.1200
     43 H43         2.7563    1.8463   53.2258 H       1  ZINC000077537368    0.0900
     44 H44         1.3270    2.3107   52.2711 H       1  ZINC000077537368    0.0400
     45 H45         4.0100    2.8979   49.9507 H       1  ZINC000077537368    0.0900
     46 H46         4.4493    1.8147   51.2932 H       1  ZINC000077537368    0.0500
     47 H47         1.7777    2.7177   48.9020 H       1  ZINC000077537368    0.1300
     48 H48        -0.0020    1.1648   48.2163 H       1  ZINC000077537368    0.1300
     49 H49         1.3358   -1.6416   51.1718 H       1  ZINC000077537368    0.1300
     50 H50         3.1116   -0.0758   51.8380 H       1  ZINC000077537368    0.1400
     51 H51         3.0405    4.8617   50.3393 H       1  ZINC000077537368    0.1000
     52 H52         1.4895    4.0342   50.6213 H       1  ZINC000077537368    0.0400
     53 H53         1.3723    6.2542   51.6221 H       1  ZINC000077537368    0.1000
     54 H54         2.8915    5.9721   52.5124 H       1  ZINC000077537368    0.0800
@<TRIPOS>BOND
     1     1     2    1
     2     1    28    1
     3     1    29    1
     4     1    30    1
     5     2    10    1
     6     2     3    1
     7     3     4    2
     8     4     5    1
     9     4     9    1
    10     5     6    1
    11     5     7    1
    12     5     8    1
    13     6    31    1
    14     6    32    1
    15     6    33    1
    16     7    34    1
    17     7    35    1
    18     7    36    1
    19     8    37    1
    20     8    38    1
    21     8    39    1
    22     9    10    2
    23     9    40    1
    24    10    11    1
    25    11    12    2
    26    11    13   am
    27    13    27    1
    28    13    14    1
    29    14    15    1
    30    14    41    1
    31    14    42    1
    32    15    16    1
    33    15    43    1
    34    15    44    1
    35    16    17    1
    36    16    26    1
    37    17    18    1
    38    17    45    1
    39    17    46    1
    40    18    25   ar
    41    18    19   ar
    42    19    20   ar
    43    19    47    1
    44    20    21   ar
    45    20    48    1
    46    21    22    1
    47    21    24   ar
    48    22    23    3
    49    24    25   ar
    50    24    49    1
    51    25    50    1
    52    26    27    1
    53    26    51    1
    54    26    52    1
    55    27    53    1
    56    27    54    1
@<TRIPOS>SUBSTRUCTURE
     1 ZINC000077537368        1 TEMP              0 ****  ****    0 ROOT


##########                                Name:    ZINC000573150059
##########                DOCK_Rotatable_Bonds:                   7
##########                         Heavy_Atoms:                  23
##########                    Molecular_Weight:             378.269
##########                DOCK_Rotatable_Bonds:                   7
##########                       Formal_Charge:        -2.98023e-07
##########                     HBond_Acceptors:                   5
##########                        HBond_Donors:                   2
##########                         Heavy_Atoms:                  23
##########                          Grid_Score:          -27.765549
##########                     Grid_vdw_energy:          -28.067339
##########                      Grid_es_energy:            0.301791
##########           Internal_energy_repulsive:            8.718843

@<TRIPOS>MOLECULE
ZINC000573150059
 43 44 1 0 0
SMALL
USER_CHARGES


@<TRIPOS>ATOM
      1 C1         -2.8176    4.5083   60.8612 C.3     1  ZINC000573150059    0.0300
      2 O2         -2.6358    3.7307   59.6762 O.3     1  ZINC000573150059   -0.3600
      3 C3         -1.3079    3.7747   59.1501 C.3     1  ZINC000573150059    0.0700
      4 H4         -0.8839    4.7649   59.3164 H       1  ZINC000573150059    0.0900
      5 C5         -0.4452    2.7256   59.8544 C.3     1  ZINC000573150059   -0.1700
      6 C6         -1.3436    3.4855   57.6715 C.2     1  ZINC000573150059    0.5100
      7 O7         -1.9705    2.5345   57.2546 O.2     1  ZINC000573150059   -0.4900
      8 N8         -0.6788    4.2833   56.8126 N.am    1  ZINC000573150059   -0.6700
      9 C9         -0.7120    4.0147   55.4398 C.ar    1  ZINC000573150059    0.1900
     10 C10        -1.8891    4.1945   54.7244 C.ar    1  ZINC000573150059   -0.2000
     11 C11        -1.9230    3.9296   53.3686 C.ar    1  ZINC000573150059   -0.0500
     12 C12        -0.7870    3.4858   52.7200 C.ar    1  ZINC000573150059   -0.2200
     13 C13         0.3941    3.3043   53.4298 C.ar    1  ZINC000573150059    0.2400
     14 N14         1.5424    2.8560   52.7734 N.pl3   1  ZINC000573150059   -0.7300
     15 C15         1.6454    2.9710   51.3165 C.3     1  ZINC000573150059    0.2000
     16 H16         1.0324    3.8044   50.9736 H       1  ZINC000573150059    0.1000
     17 C17         3.1044    3.2165   50.9263 C.3     1  ZINC000573150059   -0.1700
     18 C18         1.1622    1.6951   50.6765 C.ar    1  ZINC000573150059    0.1400
     19 C19         1.5624    0.4777   51.1938 C.ar    1  ZINC000573150059   -0.1600
     20 C20         1.1121   -0.6906   50.5982 C.ar    1  ZINC000573150059   -0.0400
     21 C21         0.2721   -0.5898   49.4990 C.ar    1  ZINC000573150059   -0.1500
     22 Br22       -0.3763   -2.1464   48.6431 Br      1  ZINC000573150059   -0.0300
     23 C23        -0.0856    0.6641   49.0373 C.ar    1  ZINC000573150059    0.1400
     24 N24         0.3584    1.7535   49.6326 N.ar    1  ZINC000573150059   -0.4700
     25 C25         0.4324    3.5741   54.7905 C.ar    1  ZINC000573150059   -0.1900
     26 H26        -2.1501    4.1429   61.6415 H       1  ZINC000573150059    0.0500
     27 H27        -2.5903    5.5530   60.6486 H       1  ZINC000573150059    0.0400
     28 H28        -3.8509    4.4224   61.1973 H       1  ZINC000573150059    0.0900
     29 H29        -0.8693    1.7354   59.6880 H       1  ZINC000573150059    0.0700
     30 H30         0.5676    2.7592   59.4530 H       1  ZINC000573150059    0.0700
     31 H31        -0.4194    2.9348   60.9237 H       1  ZINC000573150059    0.0700
     32 H32        -0.1775    5.0439   57.1460 H       1  ZINC000573150059    0.4100
     33 H33        -2.7790    4.5414   55.2286 H       1  ZINC000573150059    0.1200
     34 H34        -2.8396    4.0696   52.8150 H       1  ZINC000573150059    0.1300
     35 H35        -0.8168    3.2793   51.6604 H       1  ZINC000573150059    0.1200
     36 H36         2.2718    2.4684   53.2821 H       1  ZINC000573150059    0.4100
     37 H37         3.7174    2.3831   51.2691 H       1  ZINC000573150059    0.0600
     38 H38         3.1810    3.3021   49.8424 H       1  ZINC000573150059    0.0700
     39 H39         3.4539    4.1394   51.3892 H       1  ZINC000573150059    0.0700
     40 H40         2.2178    0.4369   52.0511 H       1  ZINC000573150059    0.1500
     41 H41         1.4087   -1.6561   50.9807 H       1  ZINC000573150059    0.1500
     42 H42        -0.7390    0.7517   48.1819 H       1  ZINC000573150059    0.1700
     43 H43         1.3489    3.4343   55.3443 H       1  ZINC000573150059    0.1400
@<TRIPOS>BOND
     1     1     2    1
     2     1    26    1
     3     1    27    1
     4     1    28    1
     5     2     3    1
     6     3     4    1
     7     3     5    1
     8     3     6    1
     9     5    29    1
    10     5    30    1
    11     5    31    1
    12     6     7    2
    13     6     8   am
    14     8     9    1
    15     8    32    1
    16     9    25   ar
    17     9    10   ar
    18    10    11   ar
    19    10    33    1
    20    11    12   ar
    21    11    34    1
    22    12    13   ar
    23    12    35    1
    24    13    14    1
    25    13    25   ar
    26    14    15    1
    27    14    36    1
    28    15    16    1
    29    15    17    1
    30    15    18    1
    31    17    37    1
    32    17    38    1
    33    17    39    1
    34    18    24   ar
    35    18    19   ar
    36    19    20   ar
    37    19    40    1
    38    20    21   ar
    39    20    41    1
    40    21    22    1
    41    21    23   ar
    42    23    24   ar
    43    23    42    1
    44    25    43    1
@<TRIPOS>SUBSTRUCTURE
     1 ZINC000573150059        1 TEMP              0 ****  ****    0 ROOT


##########                                Name:    ZINC001011267435
##########                DOCK_Rotatable_Bonds:                   7
##########                         Heavy_Atoms:                  24
##########                    Molecular_Weight:             331.458
##########                DOCK_Rotatable_Bonds:                   7
##########                       Formal_Charge:        -4.47035e-08
##########                     HBond_Acceptors:                   5
##########                        HBond_Donors:                   0
##########                         Heavy_Atoms:                  24
##########                          Grid_Score:          -27.764154
##########                     Grid_vdw_energy:          -27.983263
##########                      Grid_es_energy:            0.219108
##########           Internal_energy_repulsive:           36.689999

@<TRIPOS>MOLECULE
ZINC001011267435
 53 54 1 0 0
SMALL
USER_CHARGES


@<TRIPOS>ATOM
      1 C1         -7.7505    0.6721   66.6273 C.3     1  ZINC001011267435   -0.1500
      2 C2         -8.6947    1.0354   65.4796 C.3     1  ZINC001011267435   -0.1200
      3 C3         -8.7737   -0.1329   64.4949 C.3     1  ZINC001011267435   -0.0700
      4 C4         -9.8944    0.1092   63.5169 C.ar    1  ZINC001011267435    0.1300
      5 C5         -9.9453   -0.6201   62.3450 C.ar    1  ZINC001011267435   -0.1200
      6 C6        -10.9902   -0.3860   61.4456 C.ar    1  ZINC001011267435   -0.0800
      7 C7        -11.0865   -1.1441   60.1765 C.2     1  ZINC001011267435    0.5600
      8 O8        -11.8649   -2.0724   60.0807 O.2     1  ZINC001011267435   -0.5200
      9 N9        -10.3107   -0.8043   59.1280 N.am    1  ZINC001011267435   -0.6100
     10 C10       -10.3999   -1.5436   57.8611 C.3     1  ZINC001011267435    0.0700
     11 C11       -10.6903   -0.5472   56.7317 C.3     1  ZINC001011267435    0.1000
     12 N12        -9.7404    0.5694   56.8349 N.am    1  ZINC001011267435   -0.6200
     13 C13        -8.9652    0.9098   55.7862 C.2     1  ZINC001011267435    0.5300
     14 O14        -8.1849    1.8332   55.8834 O.2     1  ZINC001011267435   -0.5300
     15 C15        -9.0679    0.1430   54.4930 C.3     1  ZINC001011267435   -0.1100
     16 H16        -9.0905   -0.9259   54.7052 H       1  ZINC001011267435    0.0900
     17 C17        -7.8577    0.4627   53.6130 C.3     1  ZINC001011267435   -0.1500
     18 C18       -10.3504    0.5451   53.7620 C.3     1  ZINC001011267435   -0.0800
     19 C19       -10.1285    1.8733   53.0358 C.3     1  ZINC001011267435   -0.1500
     20 C20       -10.7182   -0.5370   52.7448 C.3     1  ZINC001011267435   -0.1500
     21 C21        -9.6512    1.3087   58.1020 C.3     1  ZINC001011267435    0.0900
     22 C22        -9.3649    0.3159   59.2294 C.3     1  ZINC001011267435    0.1000
     23 C23       -11.9418    0.5828   61.7777 C.ar    1  ZINC001011267435   -0.1600
     24 C24       -11.8137    1.2658   62.9719 C.ar    1  ZINC001011267435    0.1100
     25 N25       -10.8157    1.0104   63.7939 N.ar    1  ZINC001011267435   -0.4600
     26 H26        -8.1273   -0.2119   67.1418 H       1  ZINC001011267435    0.0600
     27 H27        -6.7573    0.4649   66.2290 H       1  ZINC001011267435    0.0500
     28 H28        -7.6942    1.5045   67.3288 H       1  ZINC001011267435    0.0600
     29 H29        -9.6879    1.2426   65.8779 H       1  ZINC001011267435    0.0700
     30 H30        -8.3179    1.9194   64.9650 H       1  ZINC001011267435    0.0600
     31 H31        -7.8311   -0.2165   63.9540 H       1  ZINC001011267435    0.0800
     32 H32        -8.9619   -1.0568   65.0417 H       1  ZINC001011267435    0.0900
     33 H33        -9.1892   -1.3597   62.1264 H       1  ZINC001011267435    0.1400
     34 H34        -9.4553   -2.0517   57.6666 H       1  ZINC001011267435    0.0800
     35 H35       -11.2061   -2.2747   57.9201 H       1  ZINC001011267435    0.1100
     36 H36       -10.5702   -1.0417   55.7678 H       1  ZINC001011267435    0.1100
     37 H37       -11.7087   -0.1712   56.8285 H       1  ZINC001011267435    0.0700
     38 H38        -7.9727   -0.0261   52.6456 H       1  ZINC001011267435    0.0800
     39 H39        -7.7877    1.5409   53.4693 H       1  ZINC001011267435    0.0600
     40 H40        -6.9507    0.1012   54.0973 H       1  ZINC001011267435    0.0600
     41 H41       -11.1601    0.6561   54.4832 H       1  ZINC001011267435    0.0800
     42 H42       -11.0422    2.1598   52.5150 H       1  ZINC001011267435    0.0600
     43 H43        -9.8664    2.6442   53.7604 H       1  ZINC001011267435    0.0600
     44 H44        -9.3188    1.7623   52.3146 H       1  ZINC001011267435    0.0600
     45 H45       -10.8763   -1.4833   53.2622 H       1  ZINC001011267435    0.0600
     46 H46       -11.6319   -0.2506   52.2240 H       1  ZINC001011267435    0.0600
     47 H47        -9.9084   -0.6481   52.0236 H       1  ZINC001011267435    0.0500
     48 H48        -8.8450    2.0398   58.0430 H       1  ZINC001011267435    0.1000
     49 H49       -10.5958    1.8168   58.2963 H       1  ZINC001011267435    0.0800
     50 H50        -9.4851    0.8117   60.1927 H       1  ZINC001011267435    0.1100
     51 H51        -8.3469   -0.0620   59.1344 H       1  ZINC001011267435    0.0800
     52 H52       -12.7644    0.7944   61.1106 H       1  ZINC001011267435    0.1500
     53 H53       -12.5436    2.0164   63.2372 H       1  ZINC001011267435    0.1700
@<TRIPOS>BOND
     1     1     2    1
     2     1    26    1
     3     1    27    1
     4     1    28    1
     5     2     3    1
     6     2    29    1
     7     2    30    1
     8     3     4    1
     9     3    31    1
    10     3    32    1
    11     4    25   ar
    12     4     5   ar
    13     5     6   ar
    14     5    33    1
    15     6     7    1
    16     6    23   ar
    17     7     8    2
    18     7     9   am
    19     9    22    1
    20     9    10    1
    21    10    11    1
    22    10    34    1
    23    10    35    1
    24    11    12    1
    25    11    36    1
    26    11    37    1
    27    12    13   am
    28    12    21    1
    29    13    14    2
    30    13    15    1
    31    15    16    1
    32    15    17    1
    33    15    18    1
    34    17    38    1
    35    17    39    1
    36    17    40    1
    37    18    19    1
    38    18    20    1
    39    18    41    1
    40    19    42    1
    41    19    43    1
    42    19    44    1
    43    20    45    1
    44    20    46    1
    45    20    47    1
    46    21    22    1
    47    21    48    1
    48    21    49    1
    49    22    50    1
    50    22    51    1
    51    23    24   ar
    52    23    52    1
    53    24    25   ar
    54    24    53    1
@<TRIPOS>SUBSTRUCTURE
     1 ZINC001011267435        1 TEMP              0 ****  ****    0 ROOT


##########                                Name:    ZINC000673213454
##########                DOCK_Rotatable_Bonds:                   7
##########                         Heavy_Atoms:                  26
##########                    Molecular_Weight:             360.453
##########                DOCK_Rotatable_Bonds:                   7
##########                       Formal_Charge:          -0.0100001
##########                     HBond_Acceptors:                   6
##########                        HBond_Donors:                   1
##########                         Heavy_Atoms:                  26
##########                          Grid_Score:          -27.722820
##########                     Grid_vdw_energy:          -25.757261
##########                      Grid_es_energy:           -1.965560
##########           Internal_energy_repulsive:           17.664705

@<TRIPOS>MOLECULE
ZINC000673213454
 54 56 1 0 0
SMALL
USER_CHARGES


@<TRIPOS>ATOM
      1 C1         -3.0452    5.4014   57.8197 C.3     1  ZINC000673213454   -0.1700
      2 C2         -3.4248    4.0570   58.4438 C.3     1  ZINC000673213454    0.1400
      3 H3         -3.7899    4.2176   59.4583 H       1  ZINC000673213454    0.0900
      4 C4         -2.1954    3.1471   58.4823 C.3     1  ZINC000673213454   -0.1200
      5 C5         -1.1916    3.6890   59.5018 C.3     1  ZINC000673213454   -0.1300
      6 H6         -0.9127    4.7131   59.2541 H       1  ZINC000673213454    0.0800
      7 C7          0.0634    2.7845   59.5600 C.3     1  ZINC000673213454   -0.1500
      8 C8          0.3625    2.7415   61.0802 C.3     1  ZINC000673213454    0.0500
      9 O9         -0.9501    2.7140   61.6811 O.3     1  ZINC000673213454   -0.3800
     10 C10        -1.7777    3.6190   60.9254 C.3     1  ZINC000673213454    0.0500
     11 N11        -4.4750    3.4253   57.6412 N.am    1  ZINC000673213454   -0.6900
     12 C12        -5.7699    3.7159   57.8768 C.2     1  ZINC000673213454    0.5100
     13 O13        -6.0658    4.5019   58.7527 O.2     1  ZINC000673213454   -0.5100
     14 C14        -6.8414    3.0701   57.0592 C.2     1  ZINC000673213454    0.5000
     15 O15        -7.3433    2.0292   57.4299 O.2     1  ZINC000673213454   -0.5200
     16 N16        -7.2503    3.6437   55.9102 N.am    1  ZINC000673213454   -0.5800
     17 C17        -6.6217    4.9088   55.4856 C.3     1  ZINC000673213454    0.1100
     18 C18        -6.3473    4.9078   53.9746 C.3     1  ZINC000673213454   -0.1700
     19 C19        -5.8513    3.5404   53.5495 C.3     1  ZINC000673213454    0.0800
     20 O20        -6.9670    2.7502   53.1601 O.3     1  ZINC000673213454   -0.3800
     21 C21        -7.6507    2.0247   54.1147 C.3     1  ZINC000673213454    0.1500
     22 H22        -6.9583    1.3589   54.6299 H       1  ZINC000673213454    0.0600
     23 C23        -8.7296    1.2100   53.4490 C.ar    1  ZINC000673213454   -0.0800
     24 C24        -9.8582    1.8334   52.9506 C.ar    1  ZINC000673213454   -0.0900
     25 C25       -10.8479    1.0861   52.3399 C.ar    1  ZINC000673213454   -0.1300
     26 C26       -10.7088   -0.2846   52.2274 C.ar    1  ZINC000673213454   -0.1200
     27 C27        -9.5798   -0.9080   52.7249 C.ar    1  ZINC000673213454   -0.1300
     28 C28        -8.5881   -0.1601   53.3318 C.ar    1  ZINC000673213454   -0.0900
     29 C29        -8.2884    2.9904   55.1347 C.3     1  ZINC000673213454    0.0700
     30 H30        -2.6801    5.2408   56.8053 H       1  ZINC000673213454    0.0600
     31 H31        -3.9210    6.0496   57.7924 H       1  ZINC000673213454    0.0600
     32 H32        -2.2637    5.8714   58.4168 H       1  ZINC000673213454    0.0700
     33 H33        -2.4976    2.1401   58.7697 H       1  ZINC000673213454    0.0800
     34 H34        -1.7325    3.1199   57.4958 H       1  ZINC000673213454    0.0900
     35 H35        -0.1576    1.7876   59.1786 H       1  ZINC000673213454    0.0800
     36 H36         0.8923    3.2337   59.0131 H       1  ZINC000673213454    0.0800
     37 H37         0.9208    1.8410   61.3362 H       1  ZINC000673213454    0.0900
     38 H38         0.9077    3.6332   61.3896 H       1  ZINC000673213454    0.0600
     39 H39        -1.7618    4.6072   61.3849 H       1  ZINC000673213454    0.0600
     40 H40        -2.7998    3.2423   60.8871 H       1  ZINC000673213454    0.0900
     41 H41        -4.2386    2.7979   56.9403 H       1  ZINC000673213454    0.4100
     42 H42        -7.2866    5.7377   55.7281 H       1  ZINC000673213454    0.0800
     43 H43        -5.6807    5.0378   56.0203 H       1  ZINC000673213454    0.0900
     44 H44        -7.2666    5.1433   53.4385 H       1  ZINC000673213454    0.0800
     45 H45        -5.5901    5.6567   53.7428 H       1  ZINC000673213454    0.0900
     46 H46        -5.1664    3.6454   52.7081 H       1  ZINC000673213454    0.1000
     47 H47        -5.3382    3.0621   54.3839 H       1  ZINC000673213454    0.0500
     48 H48        -9.9669    2.9043   53.0385 H       1  ZINC000673213454    0.1300
     49 H49       -11.7300    1.5731   51.9511 H       1  ZINC000673213454    0.1200
     50 H50       -11.4823   -0.8686   51.7509 H       1  ZINC000673213454    0.1200
     51 H51        -9.4712   -1.9789   52.6373 H       1  ZINC000673213454    0.1200
     52 H52        -7.7060   -0.6471   53.7205 H       1  ZINC000673213454    0.1300
     53 H53        -8.9416    2.4313   55.8046 H       1  ZINC000673213454    0.1200
     54 H54        -8.8709    3.7446   54.6055 H       1  ZINC000673213454    0.0800
@<TRIPOS>BOND
     1     1     2    1
     2     1    30    1
     3     1    31    1
     4     1    32    1
     5     2     3    1
     6     2     4    1
     7     2    11    1
     8     4     5    1
     9     4    33    1
    10     4    34    1
    11     5     6    1
    12     5    10    1
    13     5     7    1
    14     7     8    1
    15     7    35    1
    16     7    36    1
    17     8     9    1
    18     8    37    1
    19     8    38    1
    20     9    10    1
    21    10    39    1
    22    10    40    1
    23    11    12   am
    24    11    41    1
    25    12    13    2
    26    12    14    1
    27    14    15    2
    28    14    16   am
    29    16    29    1
    30    16    17    1
    31    17    18    1
    32    17    42    1
    33    17    43    1
    34    18    19    1
    35    18    44    1
    36    18    45    1
    37    19    20    1
    38    19    46    1
    39    19    47    1
    40    20    21    1
    41    21    22    1
    42    21    23    1
    43    21    29    1
    44    23    28   ar
    45    23    24   ar
    46    24    25   ar
    47    24    48    1
    48    25    26   ar
    49    25    49    1
    50    26    27   ar
    51    26    50    1
    52    27    28   ar
    53    27    51    1
    54    28    52    1
    55    29    53    1
    56    29    54    1
@<TRIPOS>SUBSTRUCTURE
     1 ZINC000673213454        1 TEMP              0 ****  ****    0 ROOT


##########                                Name:    ZINC000885154703
##########                DOCK_Rotatable_Bonds:                   5
##########                         Heavy_Atoms:                  24
##########                    Molecular_Weight:             396.259
##########                DOCK_Rotatable_Bonds:                   5
##########                       Formal_Charge:          -0.0099998
##########                     HBond_Acceptors:                   6
##########                        HBond_Donors:                   1
##########                         Heavy_Atoms:                  24
##########                          Grid_Score:          -27.713326
##########                     Grid_vdw_energy:          -27.515427
##########                      Grid_es_energy:           -0.197899
##########           Internal_energy_repulsive:            7.756910

@<TRIPOS>MOLECULE
ZINC000885154703
 43 45 1 0 0
SMALL
USER_CHARGES


@<TRIPOS>ATOM
      1 C1         -8.4473   -0.1588   52.6517 C.3     1  ZINC000885154703   -0.1500
      2 C2         -9.5846    0.3315   53.5503 C.3     1  ZINC000885154703   -0.0300
      3 C3         -9.9672   -0.7597   54.5167 C.2     1  ZINC000885154703    0.1700
      4 N4         -9.7818   -2.0348   54.3496 N.2     1  ZINC000885154703   -0.3800
      5 O5        -10.1991   -2.6491   55.3089 O.3     1  ZINC000885154703    0.0800
      6 C6        -10.7056   -1.7981   56.2062 C.2     1  ZINC000885154703    0.1800
      7 C7        -11.3229   -2.1558   57.5335 C.3     1  ZINC000885154703    0.0000
      8 H8        -11.2043   -3.2224   57.7248 H       1  ZINC000885154703    0.1300
      9 C9        -12.8195   -1.7815   57.5383 C.3     1  ZINC000885154703   -0.1200
     10 C10       -13.0798   -1.2752   58.9788 C.3     1  ZINC000885154703   -0.1300
     11 C11       -11.7804   -0.4994   59.3085 C.3     1  ZINC000885154703    0.1400
     12 H12       -11.8103    0.4983   58.8706 H       1  ZINC000885154703    0.1000
     13 N13       -11.5868   -0.4161   60.7582 N.am    1  ZINC000885154703   -0.7100
     14 C14       -11.2329    0.7545   61.3247 C.2     1  ZINC000885154703    0.5700
     15 O15       -11.0728    1.7409   60.6325 O.2     1  ZINC000885154703   -0.5100
     16 C16       -11.0394    0.8388   62.7865 C.ar    1  ZINC000885154703   -0.1600
     17 C17       -12.0685    1.3142   63.6050 C.ar    1  ZINC000885154703    0.1500
     18 F18       -13.2440    1.6984   63.0614 F       1  ZINC000885154703   -0.1200
     19 C19       -11.8793    1.3896   64.9732 C.ar    1  ZINC000885154703   -0.1500
     20 C20       -10.6771    0.9968   65.5300 C.ar    1  ZINC000885154703   -0.0400
     21 C21        -9.6539    0.5249   64.7240 C.ar    1  ZINC000885154703   -0.1100
     22 Br22       -8.0137   -0.0092   65.4987 Br      1  ZINC000885154703   -0.0300
     23 C23        -9.8299    0.4387   63.3586 C.ar    1  ZINC000885154703    0.0100
     24 C24        -8.7150   -0.0756   62.4847 C.3     1  ZINC000885154703   -0.1300
     25 C25       -10.6614   -1.3416   58.6591 C.3     1  ZINC000885154703   -0.1300
     26 N26       -10.5581   -0.5919   55.7132 N.2     1  ZINC000885154703   -0.4800
     27 H27        -7.5852   -0.4187   53.2660 H       1  ZINC000885154703    0.0600
     28 H28        -8.7760   -1.0372   52.0964 H       1  ZINC000885154703    0.0600
     29 H29        -8.1706    0.6304   51.9527 H       1  ZINC000885154703    0.0700
     30 H30        -9.2559    1.2100   54.1056 H       1  ZINC000885154703    0.1000
     31 H31       -10.4466    0.5915   52.9360 H       1  ZINC000885154703    0.0900
     32 H32       -13.0172   -0.9908   56.8145 H       1  ZINC000885154703    0.0800
     33 H33       -13.4325   -2.6571   57.3251 H       1  ZINC000885154703    0.0900
     34 H34       -13.9435   -0.6109   59.0047 H       1  ZINC000885154703    0.0800
     35 H35       -13.2143   -2.1122   59.6640 H       1  ZINC000885154703    0.0800
     36 H36       -11.7133   -1.2035   61.3104 H       1  ZINC000885154703    0.4000
     37 H37       -12.6728    1.7565   65.6076 H       1  ZINC000885154703    0.1500
     38 H38       -10.5344    1.0583   66.5987 H       1  ZINC000885154703    0.1500
     39 H39        -8.8043   -1.1570   62.3807 H       1  ZINC000885154703    0.0900
     40 H40        -8.7796    0.3906   61.5015 H       1  ZINC000885154703    0.0800
     41 H41        -7.7550    0.1676   62.9398 H       1  ZINC000885154703    0.0900
     42 H42       -10.2224   -2.0121   59.3980 H       1  ZINC000885154703    0.0900
     43 H43        -9.8941   -0.6875   58.2453 H       1  ZINC000885154703    0.0800
@<TRIPOS>BOND
     1     1     2    1
     2     1    27    1
     3     1    28    1
     4     1    29    1
     5     2     3    1
     6     2    30    1
     7     2    31    1
     8     3    26    1
     9     3     4    2
    10     4     5    1
    11     5     6    1
    12     6     7    1
    13     6    26    2
    14     7     8    1
    15     7    25    1
    16     7     9    1
    17     9    10    1
    18     9    32    1
    19     9    33    1
    20    10    11    1
    21    10    34    1
    22    10    35    1
    23    11    12    1
    24    11    13    1
    25    11    25    1
    26    13    14   am
    27    13    36    1
    28    14    15    2
    29    14    16    1
    30    16    23   ar
    31    16    17   ar
    32    17    18    1
    33    17    19   ar
    34    19    20   ar
    35    19    37    1
    36    20    21   ar
    37    20    38    1
    38    21    22    1
    39    21    23   ar
    40    23    24    1
    41    24    39    1
    42    24    40    1
    43    24    41    1
    44    25    42    1
    45    25    43    1
@<TRIPOS>SUBSTRUCTURE
     1 ZINC000885154703        1 TEMP              0 ****  ****    0 ROOT


##########                                Name:    ZINC000123469372
##########                DOCK_Rotatable_Bonds:                   7
##########                         Heavy_Atoms:                  25
##########                    Molecular_Weight:             341.382
##########                DOCK_Rotatable_Bonds:                   7
##########                       Formal_Charge:          -0.0300001
##########                     HBond_Acceptors:                   5
##########                        HBond_Donors:                   2
##########                         Heavy_Atoms:                  25
##########                          Grid_Score:          -27.700623
##########                     Grid_vdw_energy:          -27.333189
##########                      Grid_es_energy:           -0.367433
##########           Internal_energy_repulsive:            8.858033

@<TRIPOS>MOLECULE
ZINC000123469372
 45 47 1 0 0
SMALL
USER_CHARGES


@<TRIPOS>ATOM
      1 C1        -11.8054   -0.9608   56.6442 C.3     1  ZINC000123469372   -0.1700
      2 C2        -10.4274   -0.6061   57.2068 C.3     1  ZINC000123469372    0.1500
      3 H3         -9.7603   -1.4615   57.1004 H       1  ZINC000123469372    0.0900
      4 C4         -9.8543    0.5863   56.4384 C.3     1  ZINC000123469372   -0.1600
      5 C5         -9.1449    0.0874   55.1780 C.3     1  ZINC000123469372    0.1500
      6 H6         -8.9920   -0.9894   55.2493 H       1  ZINC000123469372    0.1100
      7 O7         -7.8803    0.7409   55.0528 O.3     1  ZINC000123469372   -0.5500
      8 C8         -9.9914    0.3957   53.9698 C.ar    1  ZINC000123469372   -0.1200
      9 C9        -10.3928   -0.6250   53.1285 C.ar    1  ZINC000123469372   -0.1100
     10 C10       -11.1692   -0.3423   52.0202 C.ar    1  ZINC000123469372   -0.1200
     11 C11       -11.5445    0.9612   51.7536 C.ar    1  ZINC000123469372   -0.1200
     12 C12       -11.1438    1.9818   52.5954 C.ar    1  ZINC000123469372   -0.1200
     13 C13       -10.3710    1.6985   53.7061 C.ar    1  ZINC000123469372   -0.1100
     14 N14       -10.5535   -0.2586   58.6244 N.am    1  ZINC000123469372   -0.7100
     15 C15        -9.5025   -0.4166   59.4530 C.2     1  ZINC000123469372    0.5700
     16 O16        -8.4488   -0.8494   59.0239 O.2     1  ZINC000123469372   -0.5400
     17 C17        -9.6277   -0.0680   60.8678 C.2     1  ZINC000123469372   -0.2200
     18 C18        -8.6774   -0.4593   61.7523 C.2     1  ZINC000123469372    0.0000
     19 C19        -8.8637   -0.0987   63.1664 C.ar    1  ZINC000123469372   -0.1200
     20 C20        -7.8103   -0.1588   64.0776 C.ar    1  ZINC000123469372   -0.0900
     21 C21        -8.0310    0.1887   65.3967 C.ar    1  ZINC000123469372    0.0700
     22 F22        -7.0153    0.1334   66.2857 F       1  ZINC000123469372   -0.1400
     23 C23        -9.2908    0.5947   65.8120 C.ar    1  ZINC000123469372   -0.1100
     24 C24       -10.3416    0.6570   64.9152 C.ar    1  ZINC000123469372   -0.1200
     25 C25       -10.1390    0.3132   63.5911 C.ar    1  ZINC000123469372    0.1300
     26 O26       -11.1494    0.3635   62.6878 O.3     1  ZINC000123469372   -0.3000
     27 C27       -10.8101    0.7328   61.3478 C.3     1  ZINC000123469372    0.1100
     28 H28       -11.7116   -1.2194   55.5894 H       1  ZINC000123469372    0.0700
     29 H29       -12.2136   -1.8103   57.1916 H       1  ZINC000123469372    0.0600
     30 H30       -12.4725   -0.1054   56.7506 H       1  ZINC000123469372    0.0600
     31 H31       -10.6635    1.2603   56.1573 H       1  ZINC000123469372    0.0900
     32 H32        -9.1422    1.1173   57.0701 H       1  ZINC000123469372    0.0800
     33 H33        -7.3403    0.7095   55.8544 H       1  ZINC000123469372    0.3700
     34 H34       -10.0996   -1.6434   53.3368 H       1  ZINC000123469372    0.1200
     35 H35       -11.4822   -1.1397   51.3625 H       1  ZINC000123469372    0.1200
     36 H36       -12.1504    1.1822   50.8873 H       1  ZINC000123469372    0.1200
     37 H37       -11.4368    3.0002   52.3869 H       1  ZINC000123469372    0.1200
     38 H38       -10.0580    2.4958   54.3638 H       1  ZINC000123469372    0.1200
     39 H39       -11.3935    0.0852   58.9667 H       1  ZINC000123469372    0.4000
     40 H40        -7.8116   -1.0181   61.4291 H       1  ZINC000123469372    0.1500
     41 H41        -6.8292   -0.4751   63.7551 H       1  ZINC000123469372    0.1500
     42 H42        -9.4525    0.8642   66.8452 H       1  ZINC000123469372    0.1500
     43 H43       -11.3189    0.9737   65.2482 H       1  ZINC000123469372    0.1500
     44 H44       -10.5703    1.7956   61.3166 H       1  ZINC000123469372    0.0800
     45 H45       -11.6609    0.5392   60.6944 H       1  ZINC000123469372    0.1100
@<TRIPOS>BOND
     1     1     2    1
     2     1    28    1
     3     1    29    1
     4     1    30    1
     5     2     3    1
     6     2     4    1
     7     2    14    1
     8     4     5    1
     9     4    31    1
    10     4    32    1
    11     5     6    1
    12     5     7    1
    13     5     8    1
    14     7    33    1
    15     8    13   ar
    16     8     9   ar
    17     9    10   ar
    18     9    34    1
    19    10    11   ar
    20    10    35    1
    21    11    12   ar
    22    11    36    1
    23    12    13   ar
    24    12    37    1
    25    13    38    1
    26    14    15   am
    27    14    39    1
    28    15    16    2
    29    15    17    1
    30    17    27    1
    31    17    18    2
    32    18    19    1
    33    18    40    1
    34    19    25   ar
    35    19    20   ar
    36    20    21   ar
    37    20    41    1
    38    21    22    1
    39    21    23   ar
    40    23    24   ar
    41    23    42    1
    42    24    25   ar
    43    24    43    1
    44    25    26    1
    45    26    27    1
    46    27    44    1
    47    27    45    1
@<TRIPOS>SUBSTRUCTURE
     1 ZINC000123469372        1 TEMP              0 ****  ****    0 ROOT


##########                                Name:    ZINC000653668607
##########                DOCK_Rotatable_Bonds:                   5
##########                         Heavy_Atoms:                  28
##########                    Molecular_Weight:             379.459
##########                DOCK_Rotatable_Bonds:                   5
##########                       Formal_Charge:          0.00999918
##########                     HBond_Acceptors:                   6
##########                        HBond_Donors:                   2
##########                         Heavy_Atoms:                  28
##########                          Grid_Score:          -27.686668
##########                     Grid_vdw_energy:          -27.763741
##########                      Grid_es_energy:            0.077071
##########           Internal_energy_repulsive:           12.664376

@<TRIPOS>MOLECULE
ZINC000653668607
 53 56 1 0 0
SMALL
USER_CHARGES


@<TRIPOS>ATOM
      1 C1         -8.3800    3.1763   57.4973 C.3     1  ZINC000653668607    0.0300
      2 O2         -8.0014    3.8891   58.6765 O.3     1  ZINC000653668607   -0.3200
      3 C3         -8.3644    3.3468   59.8685 C.ar    1  ZINC000653668607    0.1300
      4 C4         -8.7169    4.1679   60.9296 C.ar    1  ZINC000653668607   -0.2000
      5 C5         -9.0865    3.6074   62.1339 C.ar    1  ZINC000653668607   -0.0800
      6 C6         -9.1092    2.2279   62.2951 C.ar    1  ZINC000653668607   -0.1000
      7 C7         -9.5373    1.6863   63.6342 C.3     1  ZINC000653668607   -0.0800
      8 C8         -9.1043    0.2298   63.7880 C.3     1  ZINC000653668607   -0.1200
      9 C9         -9.5745   -0.5477   62.5530 C.3     1  ZINC000653668607   -0.1100
     10 C10        -8.7472   -0.0919   61.3529 C.3     1  ZINC000653668607   -0.0600
     11 H11        -7.7207   -0.4390   61.4713 H       1  ZINC000653668607    0.1000
     12 C12        -9.3294   -0.6827   60.0947 C.2     1  ZINC000653668607    0.5200
     13 O13        -8.6074   -1.2429   59.2972 O.2     1  ZINC000653668607   -0.5100
     14 N14       -10.6524   -0.5885   59.8555 N.am    1  ZINC000653668607   -0.6700
     15 C15       -11.1930   -1.1369   58.6874 C.ar    1  ZINC000653668607    0.1500
     16 C16       -12.1196   -2.1687   58.7678 C.ar    1  ZINC000653668607   -0.1100
     17 C17       -12.6539   -2.7109   57.6146 C.ar    1  ZINC000653668607   -0.0900
     18 C18       -12.2687   -2.2293   56.3785 C.ar    1  ZINC000653668607   -0.1200
     19 C19       -11.3419   -1.1978   56.2913 C.ar    1  ZINC000653668607    0.1700
     20 N20       -10.9518   -0.7107   55.0386 N.am    1  ZINC000653668607   -0.5800
     21 C21        -9.5597   -0.8616   54.6125 C.3     1  ZINC000653668607    0.1100
     22 C22        -9.5091   -0.9561   53.0839 C.3     1  ZINC000653668607   -0.1500
     23 C23       -10.2050    0.2759   52.4956 C.3     1  ZINC000653668607    0.1100
     24 N24       -11.5623    0.3650   53.0366 N.am    1  ZINC000653668607   -0.7400
     25 C25       -11.8626   -0.1200   54.2507 C.2     1  ZINC000653668607    0.7100
     26 O26       -13.0033   -0.0109   54.6571 O.2     1  ZINC000653668607   -0.5800
     27 C27       -10.8084   -0.6470   57.4473 C.ar    1  ZINC000653668607   -0.1300
     28 C28        -8.7541    1.4106   61.2447 C.ar    1  ZINC000653668607   -0.0300
     29 C29        -8.3897    1.9717   60.0287 C.ar    1  ZINC000653668607   -0.1500
     30 H30        -7.9337    2.1820   57.5147 H       1  ZINC000653668607    0.0600
     31 H31        -9.4656    3.0867   57.4597 H       1  ZINC000653668607    0.0600
     32 H32        -8.0294    3.7166   56.6179 H       1  ZINC000653668607    0.1000
     33 H33        -8.7016    5.2414   60.8131 H       1  ZINC000653668607    0.1300
     34 H34        -9.3607    4.2471   62.9598 H       1  ZINC000653668607    0.1300
     35 H35        -9.0817    2.2821   64.4252 H       1  ZINC000653668607    0.0800
     36 H36       -10.6224    1.7493   63.7171 H       1  ZINC000653668607    0.0800
     37 H37        -8.0183    0.1757   63.8642 H       1  ZINC000653668607    0.0700
     38 H38        -9.5573   -0.1952   64.6837 H       1  ZINC000653668607    0.0800
     39 H39        -9.4294   -1.6159   62.7145 H       1  ZINC000653668607    0.0700
     40 H40       -10.6296   -0.3436   62.3703 H       1  ZINC000653668607    0.0800
     41 H41       -11.2299   -0.1404   60.4933 H       1  ZINC000653668607    0.4100
     42 H42       -12.4224   -2.5476   59.7327 H       1  ZINC000653668607    0.1400
     43 H43       -13.3739   -3.5133   57.6798 H       1  ZINC000653668607    0.1300
     44 H44       -12.6880   -2.6551   55.4790 H       1  ZINC000653668607    0.1200
     45 H45        -8.9819    0.0015   54.9434 H       1  ZINC000653668607    0.0700
     46 H46        -9.1418   -1.7694   55.0476 H       1  ZINC000653668607    0.0900
     47 H47        -8.4710   -0.9830   52.7529 H       1  ZINC000653668607    0.1000
     48 H48       -10.0242   -1.8590   52.7557 H       1  ZINC000653668607    0.0800
     49 H49        -9.6464    1.1726   52.7638 H       1  ZINC000653668607    0.0700
     50 H50       -10.2507    0.1851   51.4103 H       1  ZINC000653668607    0.0900
     51 H51       -12.2595    0.7797   52.5049 H       1  ZINC000653668607    0.4200
     52 H52       -10.0881    0.1550   57.3820 H       1  ZINC000653668607    0.1300
     53 H53        -8.1189    1.3309   59.2026 H       1  ZINC000653668607    0.1200
@<TRIPOS>BOND
     1     1     2    1
     2     1    30    1
     3     1    31    1
     4     1    32    1
     5     2     3    1
     6     3    29   ar
     7     3     4   ar
     8     4     5   ar
     9     4    33    1
    10     5     6   ar
    11     5    34    1
    12     6    28   ar
    13     6     7    1
    14     7     8    1
    15     7    35    1
    16     7    36    1
    17     8     9    1
    18     8    37    1
    19     8    38    1
    20     9    10    1
    21     9    39    1
    22     9    40    1
    23    10    11    1
    24    10    12    1
    25    10    28    1
    26    12    13    2
    27    12    14   am
    28    14    15    1
    29    14    41    1
    30    15    27   ar
    31    15    16   ar
    32    16    17   ar
    33    16    42    1
    34    17    18   ar
    35    17    43    1
    36    18    19   ar
    37    18    44    1
    38    19    20    1
    39    19    27   ar
    40    20    25   am
    41    20    21    1
    42    21    22    1
    43    21    45    1
    44    21    46    1
    45    22    23    1
    46    22    47    1
    47    22    48    1
    48    23    24    1
    49    23    49    1
    50    23    50    1
    51    24    25   am
    52    24    51    1
    53    25    26    2
    54    27    52    1
    55    28    29   ar
    56    29    53    1
@<TRIPOS>SUBSTRUCTURE
     1 ZINC000653668607        1 TEMP              0 ****  ****    0 ROOT


##########                                Name:    ZINC000463741321
##########                DOCK_Rotatable_Bonds:                   7
##########                         Heavy_Atoms:                  26
##########                    Molecular_Weight:             354.467
##########                DOCK_Rotatable_Bonds:                   7
##########                       Formal_Charge:         -6.4075e-07
##########                     HBond_Acceptors:                   4
##########                        HBond_Donors:                   1
##########                         Heavy_Atoms:                  26
##########                          Grid_Score:          -27.661053
##########                     Grid_vdw_energy:          -26.948420
##########                      Grid_es_energy:           -0.712634
##########           Internal_energy_repulsive:           13.305716

@<TRIPOS>MOLECULE
ZINC000463741321
 53 55 1 0 0
SMALL
USER_CHARGES


@<TRIPOS>ATOM
      1 C1         -9.4086    3.7336   60.7993 C.3     1  ZINC000463741321   -0.1500
      2 C2         -9.2579    2.2625   61.1921 C.3     1  ZINC000463741321   -0.1100
      3 H3         -8.4488    2.1606   61.9154 H       1  ZINC000463741321    0.1000
      4 C4        -10.5639    1.7644   61.8143 C.3     1  ZINC000463741321   -0.0900
      5 C5        -10.3575    0.3556   62.3742 C.3     1  ZINC000463741321   -0.0800
      6 C6         -9.7626    0.4463   63.7558 C.ar    1  ZINC000463741321   -0.1200
      7 C7        -10.5189    0.9367   64.8030 C.ar    1  ZINC000463741321   -0.0900
      8 C8         -9.9734    1.0201   66.0709 C.ar    1  ZINC000463741321   -0.1300
      9 C9         -8.6709    0.6135   66.2920 C.ar    1  ZINC000463741321   -0.1000
     10 C10        -7.9124    0.1231   65.2458 C.ar    1  ZINC000463741321   -0.1500
     11 C11        -8.4597    0.0329   63.9775 C.ar    1  ZINC000463741321    0.1000
     12 F12        -7.7191   -0.4463   62.9541 F       1  ZINC000463741321   -0.1400
     13 C13        -8.9416    1.4450   59.9663 C.2     1  ZINC000463741321    0.5200
     14 O14        -7.7912    1.1620   59.7063 O.2     1  ZINC000463741321   -0.5300
     15 N15        -9.9370    1.0284   59.1587 N.am    1  ZINC000463741321   -0.7300
     16 C16        -9.6293    0.2352   57.9661 C.3     1  ZINC000463741321    0.1500
     17 H17        -8.7802   -0.4166   58.1717 H       1  ZINC000463741321    0.1000
     18 C18       -10.8462   -0.6142   57.5891 C.3     1  ZINC000463741321   -0.1300
     19 C19       -10.5373   -1.3941   56.3081 C.3     1  ZINC000463741321   -0.1200
     20 C20       -10.1685   -0.4111   55.1946 C.3     1  ZINC000463741321    0.0600
     21 N21        -8.9986    0.3769   55.6034 N.3     1  ZINC000463741321   -0.4800
     22 C22        -8.5544    1.1917   54.5595 C.ar    1  ZINC000463741321    0.1100
     23 C23        -9.4493    2.0193   53.8932 C.ar    1  ZINC000463741321   -0.1700
     24 C24        -9.0067    2.8240   52.8618 C.ar    1  ZINC000463741321   -0.0900
     25 C25        -7.6744    2.8061   52.4918 C.ar    1  ZINC000463741321   -0.1500
     26 C26        -6.7809    1.9835   53.1529 C.ar    1  ZINC000463741321   -0.0900
     27 C27        -7.2157    1.1804   54.1889 C.ar    1  ZINC000463741321   -0.1400
     28 C28        -9.2858    1.1709   56.8049 C.3     1  ZINC000463741321    0.0500
     29 H29       -10.2176    3.8354   60.0760 H       1  ZINC000463741321    0.0600
     30 H30        -9.6373    4.3247   61.6860 H       1  ZINC000463741321    0.0700
     31 H31        -8.4781    4.0884   60.3561 H       1  ZINC000463741321    0.0600
     32 H32       -10.8617    2.4355   62.6200 H       1  ZINC000463741321    0.0700
     33 H33       -11.3438    1.7423   61.0530 H       1  ZINC000463741321    0.0700
     34 H34       -11.3168   -0.1594   62.4248 H       1  ZINC000463741321    0.0800
     35 H35        -9.6815   -0.1986   61.7232 H       1  ZINC000463741321    0.0800
     36 H36       -11.5363    1.2554   64.6313 H       1  ZINC000463741321    0.1300
     37 H37       -10.5653    1.4036   66.8888 H       1  ZINC000463741321    0.1300
     38 H38        -8.2457    0.6795   67.2827 H       1  ZINC000463741321    0.1300
     39 H39        -6.8945   -0.1939   65.4188 H       1  ZINC000463741321    0.1400
     40 H40       -10.8571    1.2537   59.3673 H       1  ZINC000463741321    0.4000
     41 H41       -11.0673   -1.3124   58.3963 H       1  ZINC000463741321    0.0700
     42 H42       -11.7058    0.0349   57.4219 H       1  ZINC000463741321    0.0600
     43 H43        -9.7023   -2.0715   56.4869 H       1  ZINC000463741321    0.0800
     44 H44       -11.4151   -1.9679   56.0108 H       1  ZINC000463741321    0.0800
     45 H45        -9.9340   -0.9640   54.2850 H       1  ZINC000463741321    0.0900
     46 H46       -11.0089    0.2571   55.0068 H       1  ZINC000463741321    0.0500
     47 H47       -10.4901    2.0331   54.1813 H       1  ZINC000463741321    0.1200
     48 H48        -9.7019    3.4677   52.3435 H       1  ZINC000463741321    0.1200
     49 H49        -7.3310    3.4359   51.6844 H       1  ZINC000463741321    0.1200
     50 H50        -5.7410    1.9719   52.8613 H       1  ZINC000463741321    0.1200
     51 H51        -6.5173    0.5383   54.7050 H       1  ZINC000463741321    0.1300
     52 H52       -10.1303    1.8319   56.6101 H       1  ZINC000463741321    0.0500
     53 H53        -8.4106    1.7668   57.0641 H       1  ZINC000463741321    0.0900
@<TRIPOS>BOND
     1     1     2    1
     2     1    29    1
     3     1    30    1
     4     1    31    1
     5     2     3    1
     6     2     4    1
     7     2    13    1
     8     4     5    1
     9     4    32    1
    10     4    33    1
    11     5     6    1
    12     5    34    1
    13     5    35    1
    14     6    11   ar
    15     6     7   ar
    16     7     8   ar
    17     7    36    1
    18     8     9   ar
    19     8    37    1
    20     9    10   ar
    21     9    38    1
    22    10    11   ar
    23    10    39    1
    24    11    12    1
    25    13    14    2
    26    13    15   am
    27    15    16    1
    28    15    40    1
    29    16    17    1
    30    16    28    1
    31    16    18    1
    32    18    19    1
    33    18    41    1
    34    18    42    1
    35    19    20    1
    36    19    43    1
    37    19    44    1
    38    20    21    1
    39    20    45    1
    40    20    46    1
    41    21    22    1
    42    21    28    1
    43    22    27   ar
    44    22    23   ar
    45    23    24   ar
    46    23    47    1
    47    24    25   ar
    48    24    48    1
    49    25    26   ar
    50    25    49    1
    51    26    27   ar
    52    26    50    1
    53    27    51    1
    54    28    52    1
    55    28    53    1
@<TRIPOS>SUBSTRUCTURE
     1 ZINC000463741321        1 TEMP              0 ****  ****    0 ROOT


##########                                Name:     oleObject15.pdb
##########                DOCK_Rotatable_Bonds:                   9
##########                         Heavy_Atoms:                  29
##########                    Molecular_Weight:             395.545
##########                DOCK_Rotatable_Bonds:                   9
##########                       Formal_Charge:         0.000700183
##########                     HBond_Acceptors:                   5
##########                        HBond_Donors:                   1
##########                         Heavy_Atoms:                  29
##########                          Grid_Score:          -27.650099
##########                     Grid_vdw_energy:          -27.343372
##########                      Grid_es_energy:           -0.306726
##########           Internal_energy_repulsive:           14.554557

@<TRIPOS>MOLECULE
oleObject15.pdb
 62 64 1 0 0
SMALL
NO_CHARGES


@<TRIPOS>ATOM
      1 O         -13.2768    1.9272   49.6825 O.3     1  UNL        -0.3745
      2 C         -13.9648    0.7585   50.1828 C.3     1  UNL         0.0600
      3 C         -12.9178   -0.3399   50.4805 C.3     1  UNL         0.0217
      4 N         -11.8720    0.0532   51.4538 N.4     1  UNL        -0.3010
      5 C         -12.3855    0.4693   52.7790 C.3     1  UNL        -0.0010
      6 C         -11.2564    0.9895   53.6950 C.3     1  UNL        -0.0289
      7 C         -10.0892   -0.0164   53.8408 C.3     1  UNL         0.0382
      8 C          -9.6293   -0.5026   52.4432 C.3     1  UNL        -0.0289
      9 C         -10.7967   -0.9578   51.5365 C.3     1  UNL        -0.0010
     10 C         -10.4588   -1.1903   54.7812 C.2     1  UNL         0.2156
     11 O          -9.9537   -2.2922   54.6652 O.2     1  UNL        -0.2774
     12 N         -11.3565   -0.9857   55.8213 N.am    1  UNL        -0.3025
     13 C         -11.8272   -1.9720   56.8119 C.3     1  UNL         0.0900
     14 C         -11.1921   -1.7827   58.1882 C.ar    1  UNL        -0.0217
     15 C         -11.8207   -2.2657   59.3538 C.ar    1  UNL        -0.0568
     16 C         -11.2290   -2.0721   60.6127 C.ar    1  UNL        -0.0619
     17 C         -10.0027   -1.3972   60.7167 C.ar    1  UNL        -0.0622
     18 C          -9.3674   -0.9186   59.5602 C.ar    1  UNL        -0.0619
     19 C          -9.9592   -1.1125   58.3014 C.ar    1  UNL        -0.0568
     20 C         -13.3494   -1.9838   56.9167 C.ar    1  UNL         0.0652
     21 C         -14.1174   -0.8239   56.6852 C.ar    1  UNL        -0.0383
     22 C         -15.5145   -0.8960   56.8056 C.ar    1  UNL        -0.0588
     23 C         -16.0952   -2.1251   57.1546 C.ar    1  UNL        -0.0438
     24 C         -15.2556   -3.2315   57.3693 C.ar    1  UNL         0.0272
     25 N         -13.9138   -3.1640   57.2543 N.ar    1  UNL        -0.2590
     26 C         -14.0204    3.1446   49.4380 C.3     1  UNL         0.0599
     27 C         -14.8209    3.5289   50.7077 C.3     1  UNL        -0.0364
     28 C         -12.9471    4.2175   49.1457 C.3     1  UNL        -0.0364
     29 C         -14.9442    2.9650   48.2074 C.3     1  UNL        -0.0364
     30 H         -14.6692    0.3797   49.4325 H       1  UNL         0.0581
     31 H         -14.5281    0.9852   51.0945 H       1  UNL         0.0581
     32 H         -12.4407   -0.6100   49.5297 H       1  UNL         0.0455
     33 H         -13.4417   -1.2317   50.8472 H       1  UNL         0.0455
     34 H         -12.8885   -0.3768   53.2647 H       1  UNL         0.0431
     35 H         -13.1199    1.2758   52.6695 H       1  UNL         0.0431
     36 H         -11.6677    1.2417   54.6792 H       1  UNL         0.0288
     37 H         -10.8676    1.9240   53.2698 H       1  UNL         0.0288
     38 H          -9.2407    0.5274   54.2643 H       1  UNL         0.0402
     39 H          -8.8998   -1.3156   52.5486 H       1  UNL         0.0288
     40 H          -9.1078    0.3222   51.9403 H       1  UNL         0.0288
     41 H         -11.2074   -1.9013   51.9171 H       1  UNL         0.0431
     42 H         -10.3982   -1.1570   50.5334 H       1  UNL         0.0431
     43 H         -11.6466   -0.0268   55.9642 H       1  UNL         0.1504
     44 H         -11.5352   -2.9608   56.4356 H       1  UNL         0.0624
     45 H         -12.7735   -2.7828   59.2880 H       1  UNL         0.0626
     46 H         -11.7220   -2.4430   61.5067 H       1  UNL         0.0623
     47 H          -9.5452   -1.2470   61.6905 H       1  UNL         0.0623
     48 H          -8.4170   -0.3983   59.6387 H       1  UNL         0.0623
     49 H          -9.4587   -0.7392   57.4122 H       1  UNL         0.0626
     50 H         -13.6419    0.1149   56.4177 H       1  UNL         0.0643
     51 H         -16.1321   -0.0194   56.6330 H       1  UNL         0.0624
     52 H         -17.1722   -2.2200   57.2574 H       1  UNL         0.0639
     53 H         -15.6696   -4.2014   57.6423 H       1  UNL         0.0840
     54 H         -14.1733    3.5220   51.5938 H       1  UNL         0.0260
     55 H         -15.6530    2.8370   50.8856 H       1  UNL         0.0260
     56 H         -15.2466    4.5352   50.6078 H       1  UNL         0.0260
     57 H         -12.2654    4.3304   49.9985 H       1  UNL         0.0260
     58 H         -13.4084    5.1935   48.9486 H       1  UNL         0.0260
     59 H         -12.3481    3.9420   48.2682 H       1  UNL         0.0260
     60 H         -15.7628    2.2656   48.4174 H       1  UNL         0.0260
     61 H         -14.3789    2.5842   47.3470 H       1  UNL         0.0260
     62 H         -15.3952    3.9227   47.9183 H       1  UNL         0.0260
@<TRIPOS>BOND
     1     1     2    1
     2     1    26    1
     3     2     3    1
     4     2    30    1
     5     2    31    1
     6     3     4    1
     7     3    32    1
     8     3    33    1
     9     4     5    1
    10     4     9    1
    11     5     6    1
    12     5    34    1
    13     5    35    1
    14     6     7    1
    15     6    36    1
    16     6    37    1
    17     7     8    1
    18     7    10    1
    19     7    38    1
    20     8     9    1
    21     8    39    1
    22     8    40    1
    23     9    41    1
    24     9    42    1
    25    10    11    2
    26    10    12   am
    27    12    13    1
    28    12    43    1
    29    13    14    1
    30    13    20    1
    31    13    44    1
    32    14    15   ar
    33    14    19   ar
    34    15    16   ar
    35    15    45    1
    36    16    17   ar
    37    16    46    1
    38    17    18   ar
    39    17    47    1
    40    18    19   ar
    41    18    48    1
    42    19    49    1
    43    20    21   ar
    44    20    25   ar
    45    21    22   ar
    46    21    50    1
    47    22    23   ar
    48    22    51    1
    49    23    24   ar
    50    23    52    1
    51    24    25   ar
    52    24    53    1
    53    26    27    1
    54    26    28    1
    55    26    29    1
    56    27    54    1
    57    27    55    1
    58    27    56    1
    59    28    57    1
    60    28    58    1
    61    28    59    1
    62    29    60    1
    63    29    61    1
    64    29    62    1
@<TRIPOS>SUBSTRUCTURE
     1 UNL         1 TEMP              0 ****  ****    0 ROOT


##########                                Name:    ZINC001193456967
##########                DOCK_Rotatable_Bonds:                   3
##########                         Heavy_Atoms:                  27
##########                    Molecular_Weight:             392.451
##########                DOCK_Rotatable_Bonds:                   3
##########                       Formal_Charge:           0.0300002
##########                     HBond_Acceptors:                   8
##########                        HBond_Donors:                   0
##########                         Heavy_Atoms:                  27
##########                          Grid_Score:          -27.641052
##########                     Grid_vdw_energy:          -25.675114
##########                      Grid_es_energy:           -1.965939
##########           Internal_energy_repulsive:           36.978107

@<TRIPOS>MOLECULE
ZINC001193456967
 48 50 1 0 0
SMALL
USER_CHARGES


@<TRIPOS>ATOM
      1 C1         -8.8259    3.0346   65.8737 C.3     1  ZINC001193456967   -0.1400
      2 C2         -8.8177    2.2799   64.5693 C.ar    1  ZINC001193456967    0.0300
      3 C3         -8.9941    2.9576   63.3776 C.ar    1  ZINC001193456967   -0.1400
      4 C4         -8.9867    2.2651   62.1810 C.ar    1  ZINC001193456967    0.0300
      5 C5         -8.8025    0.8954   62.1763 C.ar    1  ZINC001193456967   -0.6900
      6 S6         -8.7936    0.0128   60.6514 S.o2    1  ZINC001193456967    2.7100
      7 O7         -7.8256    0.6466   59.8265 O.2     1  ZINC001193456967   -0.9300
      8 O8         -8.7450   -1.3672   60.9868 O.2     1  ZINC001193456967   -0.9400
      9 N9        -10.2620    0.2670   59.9292 N.am    1  ZINC001193456967   -1.0000
     10 C10       -11.5733   -0.0944   60.4979 C.3     1  ZINC001193456967    0.1100
     11 C11       -12.5097   -0.2420   59.2728 C.3     1  ZINC001193456967   -0.1200
     12 C12       -11.9939    0.8920   58.3480 C.3     1  ZINC001193456967   -0.0500
     13 H13       -12.4344    1.8487   58.6285 H       1  ZINC001193456967    0.1000
     14 C14       -12.2853    0.5761   56.9036 C.ar    1  ZINC001193456967   -0.0800
     15 C15       -12.1806   -0.7243   56.4462 C.ar    1  ZINC001193456967   -0.0800
     16 C16       -12.4476   -1.0151   55.1219 C.ar    1  ZINC001193456967   -0.1500
     17 C17       -12.8204   -0.0036   54.2530 C.ar    1  ZINC001193456967    0.1000
     18 F18       -13.0820   -0.2869   52.9582 F       1  ZINC001193456967   -0.1400
     19 C19       -12.9253    1.2983   54.7123 C.ar    1  ZINC001193456967   -0.1500
     20 C20       -12.6626    1.5860   56.0382 C.ar    1  ZINC001193456967   -0.0800
     21 C21       -10.4743    0.8964   58.6176 C.3     1  ZINC001193456967    0.1900
     22 C22        -9.9527    2.3347   58.6322 C.3     1  ZINC001193456967   -0.1800
     23 C23        -9.7519    0.0887   57.5376 C.3     1  ZINC001193456967   -0.1800
     24 C24        -8.6247    0.2176   63.3682 C.ar    1  ZINC001193456967    0.0400
     25 C25        -8.6283    0.9104   64.5642 C.ar    1  ZINC001193456967   -0.0600
     26 N26        -8.4380    0.1849   65.8403 N.pl3   1  ZINC001193456967    0.0200
     27 O27        -7.7928    0.6933   66.7396 O.2     1  ZINC001193456967   -0.1400
     28 O28        -8.9266   -0.9206   65.9911 O.2     1  ZINC001193456967   -0.1500
     29 H29        -7.8019    3.2709   66.1632 H       1  ZINC001193456967    0.1100
     30 H30        -9.3922    3.9584   65.7555 H       1  ZINC001193456967    0.0900
     31 H31        -9.2893    2.4206   66.6459 H       1  ZINC001193456967    0.0800
     32 H32        -9.1381    4.0279   63.3813 H       1  ZINC001193456967    0.1600
     33 H33        -9.1252    2.7946   61.2499 H       1  ZINC001193456967    0.1600
     34 H34       -11.5049   -1.0382   61.0390 H       1  ZINC001193456967    0.0900
     35 H35       -11.9322    0.6964   61.1566 H       1  ZINC001193456967    0.0700
     36 H36       -12.3859   -1.2171   58.8015 H       1  ZINC001193456967    0.0900
     37 H37       -13.5496   -0.0747   59.5535 H       1  ZINC001193456967    0.0900
     38 H38       -11.8898   -1.5131   57.1241 H       1  ZINC001193456967    0.1400
     39 H39       -12.3651   -2.0310   54.7646 H       1  ZINC001193456967    0.1400
     40 H40       -13.2157    2.0882   54.0354 H       1  ZINC001193456967    0.1400
     41 H41       -12.7446    2.6015   56.3968 H       1  ZINC001193456967    0.1300
     42 H42       -10.4588    2.8968   59.4170 H       1  ZINC001193456967    0.0700
     43 H43        -8.8795    2.3299   58.8230 H       1  ZINC001193456967    0.0600
     44 H44       -10.1480    2.8018   57.6669 H       1  ZINC001193456967    0.0800
     45 H45       -10.0307    0.4664   56.5538 H       1  ZINC001193456967    0.0800
     46 H46        -8.6745    0.1849   57.6716 H       1  ZINC001193456967    0.0900
     47 H47       -10.0358   -0.9606   57.6178 H       1  ZINC001193456967    0.0700
     48 H48        -8.4804   -0.8527   63.3645 H       1  ZINC001193456967    0.1600
@<TRIPOS>BOND
     1     1     2    1
     2     1    29    1
     3     1    30    1
     4     1    31    1
     5     2    25   ar
     6     2     3   ar
     7     3     4   ar
     8     3    32    1
     9     4     5   ar
    10     4    33    1
    11     5     6    1
    12     5    24   ar
    13     6     7    2
    14     6     8    2
    15     6     9   am
    16     9    21    1
    17     9    10    1
    18    10    11    1
    19    10    34    1
    20    10    35    1
    21    11    12    1
    22    11    36    1
    23    11    37    1
    24    12    13    1
    25    12    14    1
    26    12    21    1
    27    14    20   ar
    28    14    15   ar
    29    15    16   ar
    30    15    38    1
    31    16    17   ar
    32    16    39    1
    33    17    18    1
    34    17    19   ar
    35    19    20   ar
    36    19    40    1
    37    20    41    1
    38    21    22    1
    39    21    23    1
    40    22    42    1
    41    22    43    1
    42    22    44    1
    43    23    45    1
    44    23    46    1
    45    23    47    1
    46    24    25   ar
    47    24    48    1
    48    25    26    1
    49    26    27    2
    50    26    28    2
@<TRIPOS>SUBSTRUCTURE
     1 ZINC001193456967        1 TEMP              0 ****  ****    0 ROOT


##########                                Name:    ZINC000422507946
##########                DOCK_Rotatable_Bonds:                   7
##########                         Heavy_Atoms:                  25
##########                    Molecular_Weight:             364.484
##########                DOCK_Rotatable_Bonds:                   7
##########                       Formal_Charge:          0.00999952
##########                     HBond_Acceptors:                   6
##########                        HBond_Donors:                   1
##########                         Heavy_Atoms:                  25
##########                          Grid_Score:          -27.640894
##########                     Grid_vdw_energy:          -26.513859
##########                      Grid_es_energy:           -1.127035
##########           Internal_energy_repulsive:           35.634212

@<TRIPOS>MOLECULE
ZINC000422507946
 50 52 1 0 0
SMALL
USER_CHARGES


@<TRIPOS>ATOM
      1 C1         -3.6088    5.6130   54.0078 C.3     1  ZINC000422507946   -0.1400
      2 C2         -2.2362    6.0648   53.5054 C.3     1  ZINC000422507946   -0.0400
      3 H3         -2.2700    7.1101   53.1982 H       1  ZINC000422507946    0.1100
      4 C4         -1.7727    5.1747   52.3336 C.3     1  ZINC000422507946   -0.1400
      5 C5         -0.2414    5.0352   52.3883 C.3     1  ZINC000422507946    0.1400
      6 H6          0.2287    5.9736   52.0944 H       1  ZINC000422507946    0.1100
      7 N7          0.1950    3.9568   51.4978 N.am    1  ZINC000422507946   -0.6900
      8 C8          1.4237    3.9947   50.9454 C.2     1  ZINC000422507946    0.5100
      9 O9          2.1691    4.9212   51.1867 O.2     1  ZINC000422507946   -0.5000
     10 C10         1.8682    2.8954   50.0357 C.2     1  ZINC000422507946    0.5100
     11 O11         2.0381    3.1166   48.8547 O.2     1  ZINC000422507946   -0.5200
     12 N12         2.0803    1.6584   50.5271 N.am    1  ZINC000422507946   -0.5700
     13 C13         2.5160    0.5809   49.6352 C.3     1  ZINC000422507946    0.1400
     14 C14         1.3156   -0.2023   49.1698 C.ar    1  ZINC000422507946   -0.0800
     15 C15         1.3869   -1.5787   49.0654 C.ar    1  ZINC000422507946   -0.1100
     16 C16         0.2864   -2.2987   48.6385 C.ar    1  ZINC000422507946   -0.0900
     17 C17        -0.8862   -1.6428   48.3157 C.ar    1  ZINC000422507946   -0.1500
     18 C18        -0.9589   -0.2638   48.4203 C.ar    1  ZINC000422507946    0.1000
     19 F19        -2.1047    0.3785   48.1050 F       1  ZINC000422507946   -0.1400
     20 C20         0.1421    0.4554   48.8529 C.ar    1  ZINC000422507946   -0.1500
     21 C21         1.8752    1.3915   51.9528 C.3     1  ZINC000422507946    0.1400
     22 C22         1.9979   -0.1211   52.2301 C.3     1  ZINC000422507946   -0.1200
     23 C23         3.4672   -0.3063   52.6838 C.3     1  ZINC000422507946   -0.1300
     24 C24         3.7250    0.9629   53.5334 C.3     1  ZINC000422507946   -0.1200
     25 C25         2.9734    2.0806   52.7815 C.3     1  ZINC000422507946   -0.1600
     26 C26         0.1282    4.6941   53.8558 C.3     1  ZINC000422507946   -0.0900
     27 S27        -0.9692    5.8221   54.8047 S.3     1  ZINC000422507946   -0.2700
     28 H28        -3.9085    6.2328   54.8529 H       1  ZINC000422507946    0.0700
     29 H29        -4.3405    5.7135   53.2061 H       1  ZINC000422507946    0.0700
     30 H30        -3.5556    4.5707   54.3225 H       1  ZINC000422507946    0.0700
     31 H31        -2.2329    4.1902   52.4178 H       1  ZINC000422507946    0.0900
     32 H32        -2.0648    5.6325   51.3886 H       1  ZINC000422507946    0.0900
     33 H33        -0.4005    3.2154   51.3059 H       1  ZINC000422507946    0.4100
     34 H34         3.0280    1.0078   48.7728 H       1  ZINC000422507946    0.1100
     35 H35         3.1965   -0.0812   50.1707 H       1  ZINC000422507946    0.1000
     36 H36         2.3031   -2.0922   49.3171 H       1  ZINC000422507946    0.1400
     37 H37         0.3433   -3.3741   48.5570 H       1  ZINC000422507946    0.1300
     38 H38        -1.7454   -2.2053   47.9817 H       1  ZINC000422507946    0.1400
     39 H39         0.0864    1.5309   48.9352 H       1  ZINC000422507946    0.1400
     40 H40         0.8935    1.7501   52.2622 H       1  ZINC000422507946    0.1100
     41 H41         1.3130   -0.4203   53.0236 H       1  ZINC000422507946    0.0800
     42 H42         1.8041   -0.6924   51.3223 H       1  ZINC000422507946    0.0600
     43 H43         3.5738   -1.2055   53.2906 H       1  ZINC000422507946    0.0700
     44 H44         4.1360   -0.3378   51.8237 H       1  ZINC000422507946    0.0600
     45 H45         3.3192    0.8389   54.5373 H       1  ZINC000422507946    0.0700
     46 H46         4.7918    1.1827   53.5767 H       1  ZINC000422507946    0.0700
     47 H47         3.6589    2.6138   52.1228 H       1  ZINC000422507946    0.0900
     48 H48         2.5247    2.7732   53.4935 H       1  ZINC000422507946    0.0800
     49 H49        -0.0973    3.6517   54.0806 H       1  ZINC000422507946    0.1000
     50 H50         1.1768    4.9169   54.0538 H       1  ZINC000422507946    0.1100
@<TRIPOS>BOND
     1     1     2    1
     2     1    28    1
     3     1    29    1
     4     1    30    1
     5     2     3    1
     6     2    27    1
     7     2     4    1
     8     4     5    1
     9     4    31    1
    10     4    32    1
    11     5     6    1
    12     5     7    1
    13     5    26    1
    14     7     8   am
    15     7    33    1
    16     8     9    2
    17     8    10    1
    18    10    11    2
    19    10    12   am
    20    12    13    1
    21    12    21    1
    22    13    14    1
    23    13    34    1
    24    13    35    1
    25    14    20   ar
    26    14    15   ar
    27    15    16   ar
    28    15    36    1
    29    16    17   ar
    30    16    37    1
    31    17    18   ar
    32    17    38    1
    33    18    19    1
    34    18    20   ar
    35    20    39    1
    36    21    25    1
    37    21    22    1
    38    21    40    1
    39    22    23    1
    40    22    41    1
    41    22    42    1
    42    23    24    1
    43    23    43    1
    44    23    44    1
    45    24    25    1
    46    24    45    1
    47    24    46    1
    48    25    47    1
    49    25    48    1
    50    26    27    1
    51    26    49    1
    52    26    50    1
@<TRIPOS>SUBSTRUCTURE
     1 ZINC000422507946        1 TEMP              0 ****  ****    0 ROOT


##########                                Name:    ZINC000534799364
##########                DOCK_Rotatable_Bonds:                   4
##########                         Heavy_Atoms:                  29
##########                    Molecular_Weight:             391.491
##########                DOCK_Rotatable_Bonds:                   4
##########                       Formal_Charge:           0.0199998
##########                     HBond_Acceptors:                   6
##########                        HBond_Donors:                   0
##########                         Heavy_Atoms:                  29
##########                          Grid_Score:          -27.618713
##########                     Grid_vdw_energy:          -26.903620
##########                      Grid_es_energy:           -0.715094
##########           Internal_energy_repulsive:            7.488899

@<TRIPOS>MOLECULE
ZINC000534799364
 55 59 1 0 0
SMALL
USER_CHARGES


@<TRIPOS>ATOM
      1 C1        -14.3127   -2.8197   60.8756 C.3     1  ZINC000534799364   -0.1100
      2 C2        -14.1025   -3.1677   59.4245 C.ar    1  ZINC000534799364   -0.0200
      3 C3        -14.8463   -4.1671   58.8195 C.ar    1  ZINC000534799364   -0.1700
      4 C4        -14.6265   -4.4595   57.4861 C.ar    1  ZINC000534799364    0.1000
      5 N5        -13.7220   -3.8013   56.7881 N.ar    1  ZINC000534799364   -0.4800
      6 C6        -12.9926   -2.8433   57.3246 C.ar    1  ZINC000534799364    0.0800
      7 C7        -13.1593   -2.4880   58.6569 C.ar    1  ZINC000534799364    0.0300
      8 N8        -12.3847   -1.4719   59.2219 N.3     1  ZINC000534799364   -0.5000
      9 C9        -12.4433   -0.2502   58.4072 C.3     1  ZINC000534799364    0.0600
     10 C10       -11.6489    0.8599   59.0992 C.3     1  ZINC000534799364    0.0600
     11 N11       -10.2589    0.4208   59.2856 N.3     1  ZINC000534799364   -0.5300
     12 C12        -9.4444    1.4894   59.8796 C.3     1  ZINC000534799364    0.1400
     13 C13        -8.6548    2.1797   58.7975 C.2     1  ZINC000534799364    0.1100
     14 N14        -8.6049    1.8237   57.5400 N.2     1  ZINC000534799364   -0.2800
     15 N15        -7.7656    2.7180   56.8648 N.pl3   1  ZINC000534799364   -0.3100
     16 C16        -7.4491    2.6819   55.4990 C.ar    1  ZINC000534799364    0.1500
     17 C17        -7.2689    1.4630   54.8593 C.ar    1  ZINC000534799364   -0.1000
     18 C18        -6.9573    1.4294   53.5143 C.ar    1  ZINC000534799364   -0.1300
     19 C19        -6.8246    2.6106   52.8037 C.ar    1  ZINC000534799364    0.1000
     20 F20        -6.5200    2.5758   51.4880 F       1  ZINC000534799364   -0.1300
     21 C21        -7.0040    3.8275   53.4401 C.ar    1  ZINC000534799364   -0.1300
     22 C22        -7.3213    3.8649   54.7837 C.ar    1  ZINC000534799364   -0.0800
     23 C23        -7.3132    3.6245   57.7643 C.2     1  ZINC000534799364    0.0500
     24 C24        -7.8525    3.3173   58.9648 C.2     1  ZINC000534799364   -0.2200
     25 C25        -7.3828    4.2993   60.0166 C.3     1  ZINC000534799364   -0.0400
     26 C26        -6.1487    4.9899   59.3963 C.3     1  ZINC000534799364   -0.1200
     27 C27        -6.4281    4.8461   57.8833 C.3     1  ZINC000534799364   -0.0500
     28 C28       -10.2003   -0.8008   60.1003 C.3     1  ZINC000534799364    0.0600
     29 C29       -10.9947   -1.9109   59.4083 C.3     1  ZINC000534799364    0.0600
     30 H30       -15.0093   -1.9848   60.9519 H       1  ZINC000534799364    0.0800
     31 H31       -14.7214   -3.6830   61.4008 H       1  ZINC000534799364    0.0600
     32 H32       -13.3594   -2.5396   61.3239 H       1  ZINC000534799364    0.0800
     33 H33       -15.5892   -4.7121   59.3830 H       1  ZINC000534799364    0.1400
     34 H34       -15.2036   -5.2383   57.0097 H       1  ZINC000534799364    0.1600
     35 H35       -12.2611   -2.3267   56.7210 H       1  ZINC000534799364    0.1500
     36 H36       -12.0132   -0.4471   57.4251 H       1  ZINC000534799364    0.0500
     37 H37       -13.4815    0.0619   58.2939 H       1  ZINC000534799364    0.0800
     38 H38       -11.6668    1.7585   58.4825 H       1  ZINC000534799364    0.0900
     39 H39       -12.0954    1.0757   60.0698 H       1  ZINC000534799364    0.0500
     40 H40       -10.0958    2.2119   60.3714 H       1  ZINC000534799364    0.1000
     41 H41        -8.7600    1.0603   60.6114 H       1  ZINC000534799364    0.0500
     42 H42        -7.3719    0.5416   55.4133 H       1  ZINC000534799364    0.1400
     43 H43        -6.8166    0.4814   53.0165 H       1  ZINC000534799364    0.1500
     44 H44        -6.8997    4.7477   52.8844 H       1  ZINC000534799364    0.1500
     45 H45        -7.4615    4.8139   55.2796 H       1  ZINC000534799364    0.1400
     46 H46        -8.1621    5.0323   60.2251 H       1  ZINC000534799364    0.0800
     47 H47        -7.1036    3.7723   60.9289 H       1  ZINC000534799364    0.0700
     48 H48        -6.1043    6.0401   59.6845 H       1  ZINC000534799364    0.0800
     49 H49        -5.2313    4.4718   59.6758 H       1  ZINC000534799364    0.0800
     50 H50        -5.4966    4.6905   57.3390 H       1  ZINC000534799364    0.0800
     51 H51        -6.9442    5.7297   57.5077 H       1  ZINC000534799364    0.0900
     52 H52        -9.1621   -1.1130   60.2136 H       1  ZINC000534799364    0.0900
     53 H53       -10.6304   -0.6039   61.0824 H       1  ZINC000534799364    0.0500
     54 H54       -10.9768   -2.8096   60.0250 H       1  ZINC000534799364    0.0800
     55 H55       -10.5482   -2.1266   58.4376 H       1  ZINC000534799364    0.0500
@<TRIPOS>BOND
     1     1     2    1
     2     1    30    1
     3     1    31    1
     4     1    32    1
     5     2     7   ar
     6     2     3   ar
     7     3     4   ar
     8     3    33    1
     9     4     5   ar
    10     4    34    1
    11     5     6   ar
    12     6     7   ar
    13     6    35    1
    14     7     8    1
    15     8    29    1
    16     8     9    1
    17     9    10    1
    18     9    36    1
    19     9    37    1
    20    10    11    1
    21    10    38    1
    22    10    39    1
    23    11    12    1
    24    11    28    1
    25    12    13    1
    26    12    40    1
    27    12    41    1
    28    13    24    1
    29    13    14    2
    30    14    15    1
    31    15    16    1
    32    15    23    1
    33    16    22   ar
    34    16    17   ar
    35    17    18   ar
    36    17    42    1
    37    18    19   ar
    38    18    43    1
    39    19    20    1
    40    19    21   ar
    41    21    22   ar
    42    21    44    1
    43    22    45    1
    44    23    27    1
    45    23    24    2
    46    24    25    1
    47    25    26    1
    48    25    46    1
    49    25    47    1
    50    26    27    1
    51    26    48    1
    52    26    49    1
    53    27    50    1
    54    27    51    1
    55    28    29    1
    56    28    52    1
    57    28    53    1
    58    29    54    1
    59    29    55    1
@<TRIPOS>SUBSTRUCTURE
     1 ZINC000534799364        1 TEMP              0 ****  ****    0 ROOT


##########                                Name:    ZINC001016082614
##########                DOCK_Rotatable_Bonds:                   6
##########                         Heavy_Atoms:                  25
##########                    Molecular_Weight:             348.402
##########                DOCK_Rotatable_Bonds:                   6
##########                       Formal_Charge:         -0.00999998
##########                     HBond_Acceptors:                   8
##########                        HBond_Donors:                   1
##########                         Heavy_Atoms:                  25
##########                          Grid_Score:          -27.615406
##########                     Grid_vdw_energy:          -27.117785
##########                      Grid_es_energy:           -0.497622
##########           Internal_energy_repulsive:           28.508514

@<TRIPOS>MOLECULE
ZINC001016082614
 49 51 1 0 0
SMALL
USER_CHARGES


@<TRIPOS>ATOM
      1 C1        -14.3740   -1.7112   59.9845 C.3     1  ZINC001016082614   -0.1700
      2 C2        -12.9619   -2.2979   60.0368 C.3     1  ZINC001016082614    0.1000
      3 N3        -12.2117   -1.8711   58.8531 N.am    1  ZINC001016082614   -0.6100
      4 C4        -12.4920   -2.4064   57.6482 C.2     1  ZINC001016082614    0.6100
      5 O5        -13.3682   -3.2442   57.5437 O.2     1  ZINC001016082614   -0.5100
      6 C6        -11.7406   -1.9788   56.4628 C.2     1  ZINC001016082614   -0.1100
      7 C7        -12.2290   -1.2823   55.3974 C.2     1  ZINC001016082614    0.0600
      8 N8        -11.2186   -1.0985   54.5413 N.2     1  ZINC001016082614   -0.4900
      9 C9        -10.1403   -1.6481   55.0321 C.2     1  ZINC001016082614    0.2000
     10 O10       -10.4271   -2.1944   56.2179 O.3     1  ZINC001016082614   -0.1900
     11 C11       -11.1567   -0.8624   58.9788 C.3     1  ZINC001016082614    0.1600
     12 H12       -10.8075   -0.6023   57.9796 H       1  ZINC001016082614    0.0800
     13 C13       -11.7536    0.3850   59.6233 C.3     1  ZINC001016082614   -0.1300
     14 C14       -10.9593    1.5958   59.1993 C.3     1  ZINC001016082614   -0.1300
     15 C15        -9.8384    1.8759   60.2167 C.3     1  ZINC001016082614    0.1000
     16 N16        -9.1884    0.6356   60.6838 N.am    1  ZINC001016082614   -0.6000
     17 C17        -8.8969    0.5128   61.9938 C.2     1  ZINC001016082614    0.5000
     18 O18        -8.3629   -0.4957   62.4043 O.2     1  ZINC001016082614   -0.5200
     19 C19        -9.2346    1.6288   62.9488 C.3     1  ZINC001016082614    0.1100
     20 H20        -8.9479    2.5897   62.5214 H       1  ZINC001016082614    0.1100
     21 C21        -8.5197    1.4102   64.3006 C.3     1  ZINC001016082614   -0.1200
     22 C22        -9.6005    0.6575   65.1106 C.3     1  ZINC001016082614   -0.1600
     23 C23       -10.9041    1.0709   64.4638 C.2     1  ZINC001016082614    0.5300
     24 O24       -12.0013    0.9311   64.9612 O.2     1  ZINC001016082614   -0.5300
     25 N25       -10.6696    1.6174   63.2561 N.am    1  ZINC001016082614   -0.7100
     26 C26        -8.8520   -0.4531   59.7939 C.3     1  ZINC001016082614    0.1300
     27 C27       -10.0352   -1.4503   59.7273 C.3     1  ZINC001016082614   -0.1600
     28 H28       -14.9322   -2.0288   60.8652 H       1  ZINC001016082614    0.0700
     29 H29       -14.3148   -0.6230   59.9648 H       1  ZINC001016082614    0.0500
     30 H30       -14.8810   -2.0638   59.0864 H       1  ZINC001016082614    0.0600
     31 H31       -12.4549   -1.9452   60.9350 H       1  ZINC001016082614    0.0900
     32 H32       -13.0211   -3.3861   60.0565 H       1  ZINC001016082614    0.0900
     33 H33       -13.2458   -0.9417   55.2684 H       1  ZINC001016082614    0.2000
     34 H34        -9.1701   -1.6560   54.5576 H       1  ZINC001016082614    0.2600
     35 H35       -12.7894    0.4994   59.3037 H       1  ZINC001016082614    0.0700
     36 H36       -11.7160    0.2872   60.7083 H       1  ZINC001016082614    0.0800
     37 H37       -10.5201    1.4145   58.2184 H       1  ZINC001016082614    0.0700
     38 H38       -11.6207    2.4604   59.1430 H       1  ZINC001016082614    0.0800
     39 H39        -9.0883    2.5144   59.7501 H       1  ZINC001016082614    0.0700
     40 H40       -10.2615    2.3984   61.0746 H       1  ZINC001016082614    0.0800
     41 H41        -7.6278    0.7964   64.1754 H       1  ZINC001016082614    0.1000
     42 H42        -8.2732    2.3626   64.7700 H       1  ZINC001016082614    0.1000
     43 H43        -9.4582   -0.4200   65.0274 H       1  ZINC001016082614    0.1100
     44 H44        -9.5783    0.9666   66.1556 H       1  ZINC001016082614    0.1100
     45 H45       -11.3600    1.9588   62.6665 H       1  ZINC001016082614    0.4200
     46 H46        -8.6508   -0.0587   58.7979 H       1  ZINC001016082614    0.0800
     47 H47        -7.9653   -0.9657   60.1668 H       1  ZINC001016082614    0.0900
     48 H48       -10.3602   -1.6926   60.7391 H       1  ZINC001016082614    0.0900
     49 H49        -9.7105   -2.3626   59.2272 H       1  ZINC001016082614    0.0700
@<TRIPOS>BOND
     1     1     2    1
     2     1    28    1
     3     1    29    1
     4     1    30    1
     5     2     3    1
     6     2    31    1
     7     2    32    1
     8     3     4   am
     9     3    11    1
    10     4     5    2
    11     4     6    1
    12     6    10    1
    13     6     7    2
    14     7     8    1
    15     7    33    1
    16     8     9    2
    17     9    10    1
    18     9    34    1
    19    11    12    1
    20    11    27    1
    21    11    13    1
    22    13    14    1
    23    13    35    1
    24    13    36    1
    25    14    15    1
    26    14    37    1
    27    14    38    1
    28    15    16    1
    29    15    39    1
    30    15    40    1
    31    16    17   am
    32    16    26    1
    33    17    18    2
    34    17    19    1
    35    19    20    1
    36    19    25    1
    37    19    21    1
    38    21    22    1
    39    21    41    1
    40    21    42    1
    41    22    23    1
    42    22    43    1
    43    22    44    1
    44    23    24    2
    45    23    25   am
    46    25    45    1
    47    26    27    1
    48    26    46    1
    49    26    47    1
    50    27    48    1
    51    27    49    1
@<TRIPOS>SUBSTRUCTURE
     1 ZINC001016082614        1 TEMP              0 ****  ****    0 ROOT


##########                                Name:    ZINC000469459940
##########                DOCK_Rotatable_Bonds:                   7
##########                         Heavy_Atoms:                  24
##########                    Molecular_Weight:             414.295
##########                DOCK_Rotatable_Bonds:                   7
##########                       Formal_Charge:          -0.0200002
##########                     HBond_Acceptors:                   6
##########                        HBond_Donors:                   1
##########                         Heavy_Atoms:                  24
##########                          Grid_Score:          -27.611757
##########                     Grid_vdw_energy:          -27.241961
##########                      Grid_es_energy:           -0.369797
##########           Internal_energy_repulsive:            9.581609

@<TRIPOS>MOLECULE
ZINC000469459940
 41 42 1 0 0
SMALL
USER_CHARGES


@<TRIPOS>ATOM
      1 C1         -7.4852    0.3061   66.3438 C.3     1  ZINC000469459940   -0.1600
      2 C2         -8.6191    1.2881   66.0421 C.3     1  ZINC000469459940   -0.1200
      3 C3         -9.4895    0.7310   64.9139 C.3     1  ZINC000469459940   -0.1200
      4 C4         -8.7917    0.9583   63.5715 C.3     1  ZINC000469459940   -0.6000
      5 S5         -9.7804    0.2183   62.2429 S.o2    1  ZINC000469459940    2.4900
      6 O6         -9.4507   -1.1544   62.0813 O.2     1  ZINC000469459940   -0.9300
      7 O7        -11.1341    0.6406   62.3343 O.2     1  ZINC000469459940   -0.9300
      8 C8         -9.1845    0.9844   60.7723 C.ar    1  ZINC000469459940   -0.6400
      9 C9         -8.9594    0.2209   59.6406 C.ar    1  ZINC000469459940   -0.0300
     10 C10        -8.4926    0.8143   58.4860 C.ar    1  ZINC000469459940   -0.0800
     11 C11        -8.2477    2.1884   58.4611 C.ar    1  ZINC000469459940   -0.0900
     12 C12        -7.7479    2.8311   57.2274 C.2     1  ZINC000469459940    0.5600
     13 O13        -7.7545    4.0427   57.1278 O.2     1  ZINC000469459940   -0.5000
     14 N14        -7.2852    2.0740   56.2130 N.am    1  ZINC000469459940   -0.6700
     15 C15        -6.8122    2.6823   55.0456 C.ar    1  ZINC000469459940    0.1900
     16 C16        -7.3906    2.3788   53.8200 C.ar    1  ZINC000469459940   -0.1500
     17 C17        -6.9224    2.9802   52.6678 C.ar    1  ZINC000469459940   -0.0400
     18 C18        -5.8780    3.8844   52.7329 C.ar    1  ZINC000469459940   -0.1500
     19 Br19       -5.2403    4.7055   51.1533 Br      1  ZINC000469459940   -0.0200
     20 C20        -5.2981    4.1900   53.9543 C.ar    1  ZINC000469459940    0.1500
     21 F21        -4.2780    5.0735   54.0154 F       1  ZINC000469459940   -0.1200
     22 C22        -5.7675    3.5949   55.1111 C.ar    1  ZINC000469459940   -0.1500
     23 C23        -8.4774    2.9529   59.6063 C.ar    1  ZINC000469459940   -0.1100
     24 C24        -8.9492    2.3477   60.7527 C.ar    1  ZINC000469459940   -0.0300
     25 H25        -7.9060   -0.6522   66.6488 H       1  ZINC000469459940    0.0600
     26 H26        -6.8769    0.1677   65.4499 H       1  ZINC000469459940    0.0600
     27 H27        -6.8651    0.7029   67.1475 H       1  ZINC000469459940    0.0600
     28 H28        -9.2274    1.4264   66.9358 H       1  ZINC000469459940    0.0700
     29 H29        -8.1983    2.2461   65.7370 H       1  ZINC000469459940    0.0700
     30 H30        -9.6433   -0.3373   65.0671 H       1  ZINC000469459940    0.0800
     31 H31       -10.4533    1.2402   64.9133 H       1  ZINC000469459940    0.0800
     32 H32        -8.6866    2.0285   63.3933 H       1  ZINC000469459940    0.1400
     33 H33        -7.8053    0.4948   63.5916 H       1  ZINC000469459940    0.1400
     34 H34        -9.1493   -0.8421   59.6612 H       1  ZINC000469459940    0.1500
     35 H35        -8.3166    0.2172   57.6036 H       1  ZINC000469459940    0.1500
     36 H36        -7.2800    1.1073   56.2925 H       1  ZINC000469459940    0.4200
     37 H37        -8.2057    1.6724   53.7675 H       1  ZINC000469459940    0.1500
     38 H38        -7.3725    2.7439   51.7150 H       1  ZINC000469459940    0.1500
     39 H39        -5.3162    3.8327   56.0630 H       1  ZINC000469459940    0.1600
     40 H40        -8.2895    4.0163   59.5937 H       1  ZINC000469459940    0.1400
     41 H41        -9.1273    2.9380   61.6394 H       1  ZINC000469459940    0.1500
@<TRIPOS>BOND
     1     1     2    1
     2     1    25    1
     3     1    26    1
     4     1    27    1
     5     2     3    1
     6     2    28    1
     7     2    29    1
     8     3     4    1
     9     3    30    1
    10     3    31    1
    11     4     5    1
    12     4    32    1
    13     4    33    1
    14     5     6    2
    15     5     7    2
    16     5     8    1
    17     8    24   ar
    18     8     9   ar
    19     9    10   ar
    20     9    34    1
    21    10    11   ar
    22    10    35    1
    23    11    12    1
    24    11    23   ar
    25    12    13    2
    26    12    14   am
    27    14    15    1
    28    14    36    1
    29    15    22   ar
    30    15    16   ar
    31    16    17   ar
    32    16    37    1
    33    17    18   ar
    34    17    38    1
    35    18    19    1
    36    18    20   ar
    37    20    21    1
    38    20    22   ar
    39    22    39    1
    40    23    24   ar
    41    23    40    1
    42    24    41    1
@<TRIPOS>SUBSTRUCTURE
     1 ZINC000469459940        1 TEMP              0 ****  ****    0 ROOT


##########                                Name:    ZINC000521663393
##########                DOCK_Rotatable_Bonds:                   5
##########                         Heavy_Atoms:                  27
##########                    Molecular_Weight:              386.49
##########                DOCK_Rotatable_Bonds:                   5
##########                       Formal_Charge:               -0.02
##########                     HBond_Acceptors:                   6
##########                        HBond_Donors:                   1
##########                         Heavy_Atoms:                  27
##########                          Grid_Score:          -27.576283
##########                     Grid_vdw_energy:          -27.846445
##########                      Grid_es_energy:            0.270162
##########           Internal_energy_repulsive:           18.894047

@<TRIPOS>MOLECULE
ZINC000521663393
 50 53 1 0 0
SMALL
USER_CHARGES


@<TRIPOS>ATOM
      1 C1         -6.9443    4.1991   59.0922 C.3     1  ZINC000521663393   -0.1500
      2 C2         -6.8537    3.0574   58.0777 C.3     1  ZINC000521663393    0.0800
      3 H3         -6.1048    2.3277   58.3856 H       1  ZINC000521663393    0.0900
      4 O4         -6.5607    3.5648   56.7648 O.3     1  ZINC000521663393   -0.2900
      5 C5         -7.1859    2.7914   55.8352 C.ar    1  ZINC000521663393    0.1400
      6 C6         -6.9359    2.6567   54.4724 C.ar    1  ZINC000521663393   -0.1800
      7 C7         -7.7112    1.8097   53.7034 C.ar    1  ZINC000521663393    0.1400
      8 F8         -7.4625    1.6851   52.3814 F       1  ZINC000521663393   -0.1300
      9 C9         -8.7416    1.0879   54.2820 C.ar    1  ZINC000521663393   -0.1800
     10 C10        -8.9918    1.2142   55.6368 C.ar    1  ZINC000521663393   -0.0200
     11 C11        -8.2178    2.0554   56.4047 C.ar    1  ZINC000521663393   -0.2000
     12 C12        -8.2324    2.3815   57.8887 C.3     1  ZINC000521663393    0.1700
     13 H13        -9.0412    3.0718   58.1278 H       1  ZINC000521663393    0.1200
     14 N14        -8.3349    1.1606   58.6919 N.am    1  ZINC000521663393   -0.7200
     15 C15        -8.8582    1.2123   59.9329 C.2     1  ZINC000521663393    0.5300
     16 O16        -9.2456    2.2693   60.3841 O.2     1  ZINC000521663393   -0.5000
     17 C17        -8.9620   -0.0432   60.7598 C.3     1  ZINC000521663393    0.1200
     18 H18        -8.0278   -0.6008   60.6927 H       1  ZINC000521663393    0.0700
     19 C19        -9.2265    0.3227   62.1976 C.ar    1  ZINC000521663393   -0.0900
     20 C20        -8.2409    0.1406   63.1497 C.ar    1  ZINC000521663393   -0.0900
     21 C21        -8.4835    0.4762   64.4685 C.ar    1  ZINC000521663393   -0.1200
     22 C22        -9.7115    0.9943   64.8353 C.ar    1  ZINC000521663393   -0.1100
     23 C23       -10.6967    1.1773   63.8831 C.ar    1  ZINC000521663393   -0.1200
     24 C24       -10.4527    0.8456   62.5634 C.ar    1  ZINC000521663393   -0.1100
     25 N25       -10.0645   -0.8724   60.2549 N.3     1  ZINC000521663393   -0.5300
     26 C26        -9.5550   -2.0508   59.5500 C.3     1  ZINC000521663393    0.0500
     27 C27       -10.6630   -3.1021   59.4246 C.3     1  ZINC000521663393   -0.0700
     28 S28       -12.0194   -2.3964   58.4393 S.3     1  ZINC000521663393   -0.2700
     29 C29       -12.3196   -0.8170   59.2902 C.3     1  ZINC000521663393   -0.0700
     30 C30       -10.9834   -0.0804   59.4341 C.3     1  ZINC000521663393    0.0600
     31 H31        -7.2349    3.7996   60.0638 H       1  ZINC000521663393    0.0800
     32 H32        -5.9740    4.6885   59.1760 H       1  ZINC000521663393    0.0800
     33 H33        -7.6886    4.9226   58.7595 H       1  ZINC000521663393    0.0700
     34 H34        -6.1337    3.2163   54.0145 H       1  ZINC000521663393    0.1400
     35 H35        -9.3479    0.4292   53.6778 H       1  ZINC000521663393    0.1400
     36 H36        -9.7942    0.6529   56.0923 H       1  ZINC000521663393    0.1300
     37 H37        -8.0262    0.3150   58.3307 H       1  ZINC000521663393    0.4000
     38 H38        -7.2816   -0.2642   62.8632 H       1  ZINC000521663393    0.1300
     39 H39        -7.7138    0.3333   65.2126 H       1  ZINC000521663393    0.1300
     40 H40        -9.9013    1.2559   65.8658 H       1  ZINC000521663393    0.1200
     41 H41       -11.6563    1.5818   64.1696 H       1  ZINC000521663393    0.1300
     42 H42       -11.2224    0.9886   61.8194 H       1  ZINC000521663393    0.1200
     43 H43        -9.2174   -1.7600   58.5552 H       1  ZINC000521663393    0.0500
     44 H44        -8.7176   -2.4718   60.1066 H       1  ZINC000521663393    0.1000
     45 H45       -10.2716   -3.9891   58.9266 H       1  ZINC000521663393    0.1100
     46 H46       -11.0301   -3.3671   60.4162 H       1  ZINC000521663393    0.0900
     47 H47       -13.0107   -0.2110   58.7043 H       1  ZINC000521663393    0.1100
     48 H48       -12.7411   -1.0072   60.2772 H       1  ZINC000521663393    0.1000
     49 H49       -11.1520    0.8861   59.9090 H       1  ZINC000521663393    0.0800
     50 H50       -10.5467    0.0735   58.4474 H       1  ZINC000521663393    0.0500
@<TRIPOS>BOND
     1     1     2    1
     2     1    31    1
     3     1    32    1
     4     1    33    1
     5     2     3    1
     6     2    12    1
     7     2     4    1
     8     4     5    1
     9     5    11   ar
    10     5     6   ar
    11     6     7   ar
    12     6    34    1
    13     7     8    1
    14     7     9   ar
    15     9    10   ar
    16     9    35    1
    17    10    11   ar
    18    10    36    1
    19    11    12    1
    20    12    13    1
    21    12    14    1
    22    14    15   am
    23    14    37    1
    24    15    16    2
    25    15    17    1
    26    17    18    1
    27    17    19    1
    28    17    25    1
    29    19    24   ar
    30    19    20   ar
    31    20    21   ar
    32    20    38    1
    33    21    22   ar
    34    21    39    1
    35    22    23   ar
    36    22    40    1
    37    23    24   ar
    38    23    41    1
    39    24    42    1
    40    25    30    1
    41    25    26    1
    42    26    27    1
    43    26    43    1
    44    26    44    1
    45    27    28    1
    46    27    45    1
    47    27    46    1
    48    28    29    1
    49    29    30    1
    50    29    47    1
    51    29    48    1
    52    30    49    1
    53    30    50    1
@<TRIPOS>SUBSTRUCTURE
     1 ZINC000521663393        1 TEMP              0 ****  ****    0 ROOT


##########                                Name:    ZINC000548281822
##########                DOCK_Rotatable_Bonds:                   6
##########                         Heavy_Atoms:                  24
##########                    Molecular_Weight:             332.406
##########                DOCK_Rotatable_Bonds:                   6
##########                       Formal_Charge:        -5.58794e-08
##########                     HBond_Acceptors:                   8
##########                        HBond_Donors:                   2
##########                         Heavy_Atoms:                  24
##########                          Grid_Score:          -27.552605
##########                     Grid_vdw_energy:          -26.226404
##########                      Grid_es_energy:           -1.326200
##########           Internal_energy_repulsive:            6.576437

@<TRIPOS>MOLECULE
ZINC000548281822
 48 50 1 0 0
SMALL
USER_CHARGES


@<TRIPOS>ATOM
      1 C1         -6.5374    5.2171   58.5286 C.3     1  ZINC000548281822   -0.1700
      2 C2         -5.7740    3.8984   58.3893 C.3     1  ZINC000548281822    0.2600
      3 H3         -6.2429    3.1393   59.0155 H       1  ZINC000548281822    0.1400
      4 N4         -5.8019    3.4634   56.9907 N.am    1  ZINC000548281822   -0.7400
      5 C5         -6.8538    2.7619   56.5241 C.2     1  ZINC000548281822    0.7100
      6 O6         -7.7790    2.4887   57.2642 O.2     1  ZINC000548281822   -0.5700
      7 N7         -6.8803    2.3630   55.2370 N.am    1  ZINC000548281822   -0.7400
      8 C8         -8.0245    1.6019   54.7293 C.3     1  ZINC000548281822    0.1600
      9 H9         -8.4149    0.9609   55.5198 H       1  ZINC000548281822    0.1000
     10 C10        -9.1185    2.5696   54.2685 C.3     1  ZINC000548281822   -0.1400
     11 C11       -10.3982    1.7852   53.9591 C.3     1  ZINC000548281822    0.1100
     12 N12       -10.0646    0.6692   53.0709 N.pl3   1  ZINC000548281822   -0.4600
     13 C13       -10.9149   -0.0713   52.3049 C.2     1  ZINC000548281822   -0.0500
     14 C14       -10.1597   -0.9823   51.6581 C.2     1  ZINC000548281822   -0.0300
     15 N15        -8.8807   -0.7984   52.0239 N.2     1  ZINC000548281822   -0.4900
     16 C16        -8.8150    0.1879   52.8697 C.2     1  ZINC000548281822    0.2100
     17 C17        -7.5794    0.7382   53.5424 C.3     1  ZINC000548281822   -0.0500
     18 C18        -4.3452    4.0967   58.8254 C.2     1  ZINC000548281822    0.1700
     19 N19        -3.3075    3.3909   58.4451 N.2     1  ZINC000548281822   -0.4600
     20 C20        -2.2521    3.9250   59.0852 C.2     1  ZINC000548281822    0.1900
     21 C21        -0.8205    3.4658   58.9820 C.3     1  ZINC000548281822    0.0200
     22 C22         0.1127    4.6702   59.1218 C.3     1  ZINC000548281822   -0.1400
     23 C23        -0.5259    2.4602   60.0969 C.3     1  ZINC000548281822   -0.1400
     24 C24        -0.5949    2.8009   57.6227 C.3     1  ZINC000548281822   -0.1400
     25 N25        -2.6936    4.9101   59.8088 N.2     1  ZINC000548281822   -0.3700
     26 O26        -3.8927    5.0290   59.6692 O.3     1  ZINC000548281822    0.0800
     27 H27        -6.0685    5.9763   57.9025 H       1  ZINC000548281822    0.0700
     28 H28        -7.5708    5.0737   58.2133 H       1  ZINC000548281822    0.0900
     29 H29        -6.5167    5.5408   59.5692 H       1  ZINC000548281822    0.0800
     30 H30        -5.0633    3.6803   56.4006 H       1  ZINC000548281822    0.4000
     31 H31        -6.1416    2.5798   54.6468 H       1  ZINC000548281822    0.4000
     32 H32        -9.3185    3.2942   55.0577 H       1  ZINC000548281822    0.1000
     33 H33        -8.7868    3.0922   53.3712 H       1  ZINC000548281822    0.0800
     34 H34       -10.8237    1.4001   54.8857 H       1  ZINC000548281822    0.0900
     35 H35       -11.1184    2.4399   53.4683 H       1  ZINC000548281822    0.1000
     36 H36       -11.9858    0.0480   52.2309 H       1  ZINC000548281822    0.1800
     37 H37       -10.5206   -1.7298   50.9672 H       1  ZINC000548281822    0.1700
     38 H38        -7.0164    1.3476   52.8353 H       1  ZINC000548281822    0.0900
     39 H39        -6.9573   -0.0833   53.8975 H       1  ZINC000548281822    0.1000
     40 H40        -0.0481    5.1439   60.0903 H       1  ZINC000548281822    0.0600
     41 H41         1.1482    4.3381   59.0472 H       1  ZINC000548281822    0.0700
     42 H42        -0.0973    5.3866   58.3275 H       1  ZINC000548281822    0.0700
     43 H43        -1.1907    1.6022   59.9973 H       1  ZINC000548281822    0.0600
     44 H44         0.5096    2.1282   60.0222 H       1  ZINC000548281822    0.0700
     45 H45        -0.6866    2.9339   61.0653 H       1  ZINC000548281822    0.0600
     46 H46        -0.8048    3.5172   56.8284 H       1  ZINC000548281822    0.0700
     47 H47         0.4406    2.4688   57.5481 H       1  ZINC000548281822    0.0700
     48 H48        -1.2597    1.9429   57.5231 H       1  ZINC000548281822    0.0600
@<TRIPOS>BOND
     1     1     2    1
     2     1    27    1
     3     1    28    1
     4     1    29    1
     5     2     3    1
     6     2     4    1
     7     2    18    1
     8     4     5   am
     9     4    30    1
    10     5     6    2
    11     5     7   am
    12     7     8    1
    13     7    31    1
    14     8     9    1
    15     8    17    1
    16     8    10    1
    17    10    11    1
    18    10    32    1
    19    10    33    1
    20    11    12    1
    21    11    34    1
    22    11    35    1
    23    12    16    1
    24    12    13    1
    25    13    14    2
    26    13    36    1
    27    14    15    1
    28    14    37    1
    29    15    16    2
    30    16    17    1
    31    17    38    1
    32    17    39    1
    33    18    26    1
    34    18    19    2
    35    19    20    1
    36    20    21    1
    37    20    25    2
    38    21    22    1
    39    21    23    1
    40    21    24    1
    41    22    40    1
    42    22    41    1
    43    22    42    1
    44    23    43    1
    45    23    44    1
    46    23    45    1
    47    24    46    1
    48    24    47    1
    49    24    48    1
    50    25    26    1
@<TRIPOS>SUBSTRUCTURE
     1 ZINC000548281822        1 TEMP              0 ****  ****    0 ROOT


##########                                Name:    ZINC000876376999
##########                DOCK_Rotatable_Bonds:                   7
##########                         Heavy_Atoms:                  24
##########                    Molecular_Weight:             358.502
##########                DOCK_Rotatable_Bonds:                   7
##########                       Formal_Charge:          -0.0299994
##########                     HBond_Acceptors:                   7
##########                        HBond_Donors:                   2
##########                         Heavy_Atoms:                  24
##########                          Grid_Score:          -27.546005
##########                     Grid_vdw_energy:          -27.462917
##########                      Grid_es_energy:           -0.083088
##########           Internal_energy_repulsive:           35.752964

@<TRIPOS>MOLECULE
ZINC000876376999
 54 56 1 0 0
SMALL
USER_CHARGES


@<TRIPOS>ATOM
      1 C1         -1.9964    3.9334   54.9892 C.3     1  ZINC000876376999   -0.1500
      2 C2         -3.2956    4.6805   55.2969 C.3     1  ZINC000876376999   -0.1100
      3 C3         -4.0905    4.8751   54.0043 C.3     1  ZINC000876376999   -0.0700
      4 C4         -5.4364    5.5279   54.3257 C.3     1  ZINC000876376999    0.0900
      5 O5         -6.0546    4.8348   55.4117 O.3     1  ZINC000876376999   -0.5600
      6 C6         -3.3012    5.7739   53.0496 C.3     1  ZINC000876376999   -0.1100
      7 C7         -4.1099    5.9961   51.7695 C.3     1  ZINC000876376999   -0.1400
      8 C8         -4.3471    4.6488   51.0799 C.3     1  ZINC000876376999    0.1100
      9 N9         -4.9760    3.7307   52.0393 N.am    1  ZINC000876376999   -0.6300
     10 C10        -6.1256    3.0980   51.7320 C.2     1  ZINC000876376999    0.7100
     11 O11        -6.6525    3.2846   50.6523 O.2     1  ZINC000876376999   -0.5800
     12 N12        -6.6914    2.2586   52.6219 N.am    1  ZINC000876376999   -0.7500
     13 C13        -7.9411    1.5708   52.2880 C.3     1  ZINC000876376999    0.1400
     14 C14        -8.1995    0.4559   53.3088 C.3     1  ZINC000876376999   -0.1100
     15 C15        -8.8513    1.0163   54.5435 C.3     1  ZINC000876376999   -0.1100
     16 C16       -10.3725    0.8479   54.6346 C.3     1  ZINC000876376999   -0.5200
     17 H17       -10.8119    1.2951   55.5372 H       1  ZINC000876376999    0.1500
     18 C18       -10.9817    1.4008   53.3259 C.3     1  ZINC000876376999   -0.1200
     19 C19       -10.9227    0.3645   52.2089 C.3     1  ZINC000876376999   -0.1200
     20 C20       -10.2701   -0.9487   52.6984 C.3     1  ZINC000876376999   -0.5300
     21 H21       -10.6335   -1.8364   52.1622 H       1  ZINC000876376999    0.1500
     22 C22        -8.7498   -0.7652   52.6237 C.3     1  ZINC000876376999   -0.1000
     23 S23       -10.6920   -0.9599   54.4908 S.o2    1  ZINC000876376999    2.3700
     24 O24        -9.7169   -1.6907   55.2204 O.2     1  ZINC000876376999   -0.9300
     25 O25       -12.0762   -1.2278   54.6662 O.2     1  ZINC000876376999   -0.9300
     26 C26        -4.3275    3.5151   53.3400 C.3     1  ZINC000876376999    0.1400
     27 H27        -2.2298    2.9292   54.6354 H       1  ZINC000876376999    0.0500
     28 H28        -1.4422    4.4701   54.2193 H       1  ZINC000876376999    0.0600
     29 H29        -1.3916    3.8685   55.8937 H       1  ZINC000876376999    0.0500
     30 H30        -3.8889    4.1014   56.0045 H       1  ZINC000876376999    0.0600
     31 H31        -3.0617    5.6531   55.7295 H       1  ZINC000876376999    0.0700
     32 H32        -5.2778    6.5700   54.6031 H       1  ZINC000876376999    0.0500
     33 H33        -6.0823    5.4795   53.4490 H       1  ZINC000876376999    0.0400
     34 H34        -6.9525    5.1344   55.6094 H       1  ZINC000876376999    0.3800
     35 H35        -3.1098    6.7338   53.5294 H       1  ZINC000876376999    0.0700
     36 H36        -2.3530    5.2966   52.8020 H       1  ZINC000876376999    0.0700
     37 H37        -5.0686    6.4507   52.0190 H       1  ZINC000876376999    0.0700
     38 H38        -3.5574    6.6551   51.0998 H       1  ZINC000876376999    0.0800
     39 H39        -5.0053    4.7881   50.2223 H       1  ZINC000876376999    0.0700
     40 H40        -3.3946    4.2350   50.7489 H       1  ZINC000876376999    0.0700
     41 H41        -6.2711    2.1099   53.4834 H       1  ZINC000876376999    0.3900
     42 H42        -8.7655    2.2834   52.3117 H       1  ZINC000876376999    0.0800
     43 H43        -7.8627    1.1389   51.2902 H       1  ZINC000876376999    0.0700
     44 H44        -7.1659    0.1559   53.6419 H       1  ZINC000876376999    0.0900
     45 H45        -8.3932    0.5487   55.4325 H       1  ZINC000876376999    0.0900
     46 H46        -8.6126    2.0915   54.6180 H       1  ZINC000876376999    0.0900
     47 H47       -12.0303    1.6563   53.5076 H       1  ZINC000876376999    0.0800
     48 H48       -10.4571    2.3024   53.0234 H       1  ZINC000876376999    0.0900
     49 H49       -11.9443    0.1478   51.8817 H       1  ZINC000876376999    0.0800
     50 H50       -10.3691    0.7620   51.3633 H       1  ZINC000876376999    0.0900
     51 H51        -8.4509   -0.7450   51.5612 H       1  ZINC000876376999    0.0900
     52 H52        -8.2672   -1.6619   53.0505 H       1  ZINC000876376999    0.0900
     53 H53        -3.3733    3.0090   53.1932 H       1  ZINC000876376999    0.0600
     54 H54        -4.9727    2.9065   53.9737 H       1  ZINC000876376999    0.1000
@<TRIPOS>BOND
     1     1     2    1
     2     1    27    1
     3     1    28    1
     4     1    29    1
     5     2     3    1
     6     2    30    1
     7     2    31    1
     8     3    26    1
     9     3     4    1
    10     3     6    1
    11     4     5    1
    12     4    32    1
    13     4    33    1
    14     5    34    1
    15     6     7    1
    16     6    35    1
    17     6    36    1
    18     7     8    1
    19     7    37    1
    20     7    38    1
    21     8     9    1
    22     8    39    1
    23     8    40    1
    24     9    10   am
    25     9    26    1
    26    10    11    2
    27    10    12   am
    28    12    13    1
    29    12    41    1
    30    13    14    1
    31    13    42    1
    32    13    43    1
    33    14    22    1
    34    14    15    1
    35    14    44    1
    36    15    16    1
    37    15    45    1
    38    15    46    1
    39    16    17    1
    40    16    23    1
    41    16    18    1
    42    18    19    1
    43    18    47    1
    44    18    48    1
    45    19    20    1
    46    19    49    1
    47    19    50    1
    48    20    21    1
    49    20    22    1
    50    20    23    1
    51    22    51    1
    52    22    52    1
    53    23    24    2
    54    23    25    2
    55    26    53    1
    56    26    54    1
@<TRIPOS>SUBSTRUCTURE
     1 ZINC000876376999        1 TEMP              0 ****  ****    0 ROOT


##########                                Name:    ZINC000441887161
##########                DOCK_Rotatable_Bonds:                   6
##########                         Heavy_Atoms:                  27
##########                    Molecular_Weight:             383.514
##########                DOCK_Rotatable_Bonds:                   6
##########                       Formal_Charge:          -0.0300002
##########                     HBond_Acceptors:                   6
##########                        HBond_Donors:                   1
##########                         Heavy_Atoms:                  27
##########                          Grid_Score:          -27.521589
##########                     Grid_vdw_energy:          -27.074654
##########                      Grid_es_energy:           -0.446936
##########           Internal_energy_repulsive:           15.927632

@<TRIPOS>MOLECULE
ZINC000441887161
 52 54 1 0 0
SMALL
USER_CHARGES


@<TRIPOS>ATOM
      1 C1         -8.8105    0.9728   64.4786 C.3     1  ZINC000441887161   -0.1200
      2 C2         -9.4672    0.4669   63.2201 C.ar    1  ZINC000441887161   -0.0700
      3 C3        -10.8135    0.6931   63.0042 C.ar    1  ZINC000441887161   -0.1200
      4 C4        -11.4159    0.2289   61.8495 C.ar    1  ZINC000441887161   -0.0900
      5 C5        -10.6719   -0.4608   60.9110 C.ar    1  ZINC000441887161   -0.1100
      6 C6        -11.3286   -0.9671   59.6528 C.3     1  ZINC000441887161    0.1900
      7 H7        -10.5707   -1.1249   58.8854 H       1  ZINC000441887161    0.1000
      8 C8        -12.0407   -2.2893   59.9457 C.3     1  ZINC000441887161    0.1000
      9 N9        -12.6026   -2.8269   58.7040 N.pl3   1  ZINC000441887161   -0.4600
     10 C10       -13.8534   -3.3586   58.5420 C.2     1  ZINC000441887161   -0.0500
     11 C11       -13.9557   -3.7277   57.2509 C.2     1  ZINC000441887161   -0.0200
     12 N12       -12.7987   -3.4296   56.6413 N.2     1  ZINC000441887161   -0.4900
     13 C13       -11.9853   -2.8851   57.5044 C.2     1  ZINC000441887161    0.1800
     14 N14       -12.3040    0.0186   59.1804 N.am    1  ZINC000441887161   -1.1100
     15 S15       -11.7855    1.4513   58.5316 S.o2    1  ZINC000441887161    2.6900
     16 O16       -12.9434    2.1102   58.0371 O.2     1  ZINC000441887161   -0.9600
     17 O17       -10.9101    2.0317   59.4887 O.2     1  ZINC000441887161   -0.9500
     18 C18       -10.7973    1.0601   57.1262 C.ar    1  ZINC000441887161   -0.6800
     19 C19        -9.4262    1.2267   57.1774 C.ar    1  ZINC000441887161   -0.0300
     20 C20        -8.6509    0.9198   56.0747 C.ar    1  ZINC000441887161   -0.1300
     21 C21        -9.2467    0.4459   54.9212 C.ar    1  ZINC000441887161   -0.0200
     22 C22        -8.4017    0.1119   53.7190 C.3     1  ZINC000441887161   -0.1300
     23 C23       -10.6182    0.2781   54.8704 C.ar    1  ZINC000441887161   -0.1000
     24 C24       -11.2679   -0.2390   53.6127 C.3     1  ZINC000441887161   -0.1200
     25 C25       -11.3929    0.5812   55.9740 C.ar    1  ZINC000441887161   -0.0100
     26 C26        -9.3248   -0.6859   61.1263 C.ar    1  ZINC000441887161   -0.0700
     27 C27        -8.5134   -1.4375   60.1029 C.3     1  ZINC000441887161   -0.1300
     28 C28        -8.7217   -0.2186   62.2789 C.ar    1  ZINC000441887161   -0.1200
     29 H29        -8.4320    1.9812   64.3109 H       1  ZINC000441887161    0.0700
     30 H30        -9.5402    0.9886   65.2881 H       1  ZINC000441887161    0.0700
     31 H31        -7.9842    0.3146   64.7470 H       1  ZINC000441887161    0.0700
     32 H32       -11.3950    1.2321   63.7375 H       1  ZINC000441887161    0.1200
     33 H33       -12.4681    0.4051   61.6812 H       1  ZINC000441887161    0.1200
     34 H34       -11.3277   -3.0019   60.3602 H       1  ZINC000441887161    0.1100
     35 H35       -12.8430   -2.1187   60.6635 H       1  ZINC000441887161    0.1000
     36 H36       -14.6125   -3.4625   59.3033 H       1  ZINC000441887161    0.1700
     37 H37       -14.8180   -4.1838   56.7876 H       1  ZINC000441887161    0.1600
     38 H38       -10.9822   -2.5437   57.2954 H       1  ZINC000441887161    0.2000
     39 H39       -13.2535   -0.1679   59.2476 H       1  ZINC000441887161    0.4200
     40 H40        -8.9606    1.5969   58.0788 H       1  ZINC000441887161    0.1300
     41 H41        -7.5795    1.0507   56.1146 H       1  ZINC000441887161    0.1300
     42 H42        -8.0930   -0.9322   53.7707 H       1  ZINC000441887161    0.0800
     43 H43        -8.9816    0.2747   52.8105 H       1  ZINC000441887161    0.0800
     44 H44        -7.5191    0.7515   53.7062 H       1  ZINC000441887161    0.0700
     45 H45       -11.3192   -1.3272   53.6513 H       1  ZINC000441887161    0.0800
     46 H46       -12.2749    0.1695   53.5296 H       1  ZINC000441887161    0.0700
     47 H47       -10.6793    0.0665   52.7477 H       1  ZINC000441887161    0.0700
     48 H48       -12.4642    0.4501   55.9343 H       1  ZINC000441887161    0.1400
     49 H49        -8.0944   -0.7339   59.3835 H       1  ZINC000441887161    0.0800
     50 H50        -7.7049   -1.9722   60.6014 H       1  ZINC000441887161    0.0700
     51 H51        -9.1540   -2.1501   59.5833 H       1  ZINC000441887161    0.0600
     52 H52        -7.6694   -0.3943   62.4470 H       1  ZINC000441887161    0.1300
@<TRIPOS>BOND
     1     1     2    1
     2     1    29    1
     3     1    30    1
     4     1    31    1
     5     2    28   ar
     6     2     3   ar
     7     3     4   ar
     8     3    32    1
     9     4     5   ar
    10     4    33    1
    11     5     6    1
    12     5    26   ar
    13     6     7    1
    14     6     8    1
    15     6    14    1
    16     8     9    1
    17     8    34    1
    18     8    35    1
    19     9    13    1
    20     9    10    1
    21    10    11    2
    22    10    36    1
    23    11    12    1
    24    11    37    1
    25    12    13    2
    26    13    38    1
    27    14    15   am
    28    14    39    1
    29    15    16    2
    30    15    17    2
    31    15    18    1
    32    18    25   ar
    33    18    19   ar
    34    19    20   ar
    35    19    40    1
    36    20    21   ar
    37    20    41    1
    38    21    22    1
    39    21    23   ar
    40    22    42    1
    41    22    43    1
    42    22    44    1
    43    23    24    1
    44    23    25   ar
    45    24    45    1
    46    24    46    1
    47    24    47    1
    48    25    48    1
    49    26    27    1
    50    26    28   ar
    51    27    49    1
    52    27    50    1
    53    27    51    1
    54    28    52    1
@<TRIPOS>SUBSTRUCTURE
     1 ZINC000441887161        1 TEMP              0 ****  ****    0 ROOT


##########                                Name:    ZINC001318556452
##########                DOCK_Rotatable_Bonds:                   4
##########                         Heavy_Atoms:                  26
##########                    Molecular_Weight:             368.456
##########                DOCK_Rotatable_Bonds:                   4
##########                       Formal_Charge:          -0.0200005
##########                     HBond_Acceptors:                   6
##########                        HBond_Donors:                   1
##########                         Heavy_Atoms:                  26
##########                          Grid_Score:          -27.506191
##########                     Grid_vdw_energy:          -27.033796
##########                      Grid_es_energy:           -0.472395
##########           Internal_energy_repulsive:           13.067021

@<TRIPOS>MOLECULE
ZINC001318556452
 46 48 1 0 0
SMALL
USER_CHARGES


@<TRIPOS>ATOM
      1 C1         -8.1283    0.5677   59.0734 C.3     1  ZINC001318556452   -0.1300
      2 C2         -9.5205    0.0069   58.9385 C.ar    1  ZINC001318556452   -0.1000
      3 C3        -10.0838   -0.7028   59.9804 C.ar    1  ZINC001318556452   -0.0500
      4 C4         -9.3053   -0.9168   61.2529 C.3     1  ZINC001318556452   -0.4100
      5 S5         -9.3260    0.6064   62.2378 S.o     1  ZINC001318556452    1.2500
      6 C6         -8.3552    0.1581   63.7031 C.3     1  ZINC001318556452   -0.4900
      7 O7        -10.6608    0.9014   62.6260 O.2     1  ZINC001318556452   -0.8400
      8 C8        -11.3618   -1.2171   59.8576 C.ar    1  ZINC001318556452   -0.1200
      9 C9        -12.0793   -1.0234   58.6917 C.ar    1  ZINC001318556452   -0.1000
     10 C10       -11.5214   -0.3153   57.6452 C.ar    1  ZINC001318556452   -0.1200
     11 C11       -10.2407    0.2082   57.7676 C.ar    1  ZINC001318556452    0.1400
     12 N12        -9.6733    0.9258   56.7106 N.am    1  ZINC001318556452   -0.6600
     13 C13        -9.4291    0.3137   55.5350 C.2     1  ZINC001318556452    0.5600
     14 O14        -9.7022   -0.8618   55.3937 O.2     1  ZINC001318556452   -0.5000
     15 C15        -8.8272    1.0748   54.4140 C.2     1  ZINC001318556452   -0.0300
     16 C16        -7.4754    1.2547   54.3385 C.2     1  ZINC001318556452   -0.1600
     17 C17        -6.9122    2.0090   53.2214 C.2     1  ZINC001318556452    0.5300
     18 O18        -5.7065    2.1699   53.1534 O.2     1  ZINC001318556452   -0.5200
     19 N19        -7.7042    2.5277   52.2669 N.am    1  ZINC001318556452   -0.5200
     20 C20        -7.1004    3.2769   51.1623 C.3     1  ZINC001318556452    0.0600
     21 C21        -9.0729    2.3685   52.3065 C.ar    1  ZINC001318556452    0.1800
     22 C22        -9.8755    2.9138   51.3079 C.ar    1  ZINC001318556452   -0.1700
     23 C23       -11.2423    2.7471   51.3597 C.ar    1  ZINC001318556452   -0.0600
     24 C24       -11.8294    2.0395   52.3995 C.ar    1  ZINC001318556452   -0.1500
     25 C25       -11.0612    1.4960   53.3899 C.ar    1  ZINC001318556452   -0.0600
     26 C26        -9.6721    1.6477   53.3548 C.ar    1  ZINC001318556452   -0.1100
     27 H27        -8.1803    1.5719   59.4940 H       1  ZINC001318556452    0.0800
     28 H28        -7.5411   -0.0721   59.7323 H       1  ZINC001318556452    0.0800
     29 H29        -7.6563    0.6088   58.0918 H       1  ZINC001318556452    0.0700
     30 H30        -9.7598   -1.7256   61.8252 H       1  ZINC001318556452    0.1000
     31 H31        -8.2756   -1.1780   61.0093 H       1  ZINC001318556452    0.1300
     32 H32        -7.3492   -0.1300   63.3982 H       1  ZINC001318556452    0.1100
     33 H33        -8.2997    1.0127   64.3775 H       1  ZINC001318556452    0.1100
     34 H34        -8.8334   -0.6776   64.2140 H       1  ZINC001318556452    0.0800
     35 H35       -11.8003   -1.7715   60.6742 H       1  ZINC001318556452    0.1200
     36 H36       -13.0769   -1.4266   58.5989 H       1  ZINC001318556452    0.1300
     37 H37       -12.0822   -0.1647   56.7346 H       1  ZINC001318556452    0.1500
     38 H38        -9.4552    1.8642   56.8234 H       1  ZINC001318556452    0.4100
     39 H39        -6.8282    0.8430   55.0989 H       1  ZINC001318556452    0.1600
     40 H40        -6.0183    3.3033   51.2897 H       1  ZINC001318556452    0.1000
     41 H41        -7.3433    2.7903   50.2176 H       1  ZINC001318556452    0.0800
     42 H42        -7.4906    4.2947   51.1575 H       1  ZINC001318556452    0.0800
     43 H43        -9.4280    3.4662   50.4949 H       1  ZINC001318556452    0.1400
     44 H44       -11.8627    3.1714   50.5841 H       1  ZINC001318556452    0.1300
     45 H45       -12.9023    1.9180   52.4261 H       1  ZINC001318556452    0.1300
     46 H46       -11.5256    0.9468   54.1957 H       1  ZINC001318556452    0.1700
@<TRIPOS>BOND
     1     1     2    1
     2     1    27    1
     3     1    28    1
     4     1    29    1
     5     2    11   ar
     6     2     3   ar
     7     3     4    1
     8     3     8   ar
     9     4     5    1
    10     4    30    1
    11     4    31    1
    12     5     6    1
    13     5     7    2
    14     6    32    1
    15     6    33    1
    16     6    34    1
    17     8     9   ar
    18     8    35    1
    19     9    10   ar
    20     9    36    1
    21    10    11   ar
    22    10    37    1
    23    11    12    1
    24    12    13   am
    25    12    38    1
    26    13    14    2
    27    13    15    1
    28    15    26    1
    29    15    16    2
    30    16    17    1
    31    16    39    1
    32    17    18    2
    33    17    19   am
    34    19    20    1
    35    19    21    1
    36    20    40    1
    37    20    41    1
    38    20    42    1
    39    21    26   ar
    40    21    22   ar
    41    22    23   ar
    42    22    43    1
    43    23    24   ar
    44    23    44    1
    45    24    25   ar
    46    24    45    1
    47    25    26   ar
    48    25    46    1
@<TRIPOS>SUBSTRUCTURE
     1 ZINC001318556452        1 TEMP              0 ****  ****    0 ROOT


##########                                Name:    ZINC001045463759
##########                DOCK_Rotatable_Bonds:                   6
##########                         Heavy_Atoms:                  24
##########                    Molecular_Weight:             336.385
##########                DOCK_Rotatable_Bonds:                   6
##########                       Formal_Charge:          1.3411e-07
##########                     HBond_Acceptors:                   7
##########                        HBond_Donors:                   2
##########                         Heavy_Atoms:                  24
##########                          Grid_Score:          -27.450190
##########                     Grid_vdw_energy:          -26.521200
##########                      Grid_es_energy:           -0.928990
##########           Internal_energy_repulsive:            8.910694

@<TRIPOS>MOLECULE
ZINC001045463759
 46 49 1 0 0
SMALL
USER_CHARGES


@<TRIPOS>ATOM
      1 O1        -11.1899    0.3981   61.1693 O.2     1  ZINC001045463759   -0.5100
      2 C2        -10.1886   -0.2850   61.2110 C.2     1  ZINC001045463759    0.5400
      3 N3         -9.9767   -1.2281   60.2718 N.am    1  ZINC001045463759   -0.7200
      4 C4        -10.9588   -1.4323   59.2041 C.3     1  ZINC001045463759    0.1400
      5 H5        -11.8965   -0.9474   59.4753 H       1  ZINC001045463759    0.1000
      6 C6        -11.1972   -2.9311   59.0102 C.3     1  ZINC001045463759   -0.1300
      7 C7        -12.2230   -3.1444   57.8952 C.3     1  ZINC001045463759   -0.1200
      8 C8        -11.6940   -2.5395   56.5931 C.3     1  ZINC001045463759   -0.1200
      9 C9        -11.4556   -1.0407   56.7870 C.3     1  ZINC001045463759   -0.1300
     10 C10       -10.4300   -0.8274   57.9020 C.3     1  ZINC001045463759    0.1500
     11 H11        -9.4922   -1.3125   57.6308 H       1  ZINC001045463759    0.0900
     12 N12       -10.2016    0.6077   58.0876 N.pl3   1  ZINC001045463759   -0.7100
     13 C13        -9.1487    1.2313   57.4381 C.ar    1  ZINC001045463759    0.4400
     14 C14        -8.5209    2.3406   58.0080 C.ar    1  ZINC001045463759   -0.3000
     15 C15        -7.4759    2.9270   57.3212 C.ar    1  ZINC001045463759    0.1800
     16 N16        -7.1056    2.4220   56.1530 N.ar    1  ZINC001045463759   -0.5600
     17 C17        -7.7186    1.3735   55.6416 C.ar    1  ZINC001045463759    0.4000
     18 C18        -7.2619    0.8351   54.3102 C.3     1  ZINC001045463759   -0.1100
     19 C19        -8.3292    0.2588   53.3776 C.3     1  ZINC001045463759   -0.1500
     20 C20        -7.6787    1.6058   53.0559 C.3     1  ZINC001045463759   -0.1500
     21 N21        -8.7161    0.7795   56.2645 N.ar    1  ZINC001045463759   -0.5700
     22 C22        -9.1783   -0.0750   62.3093 C.3     1  ZINC001045463759   -0.2000
     23 H23        -8.3017   -0.7217   62.2715 H       1  ZINC001045463759    0.1500
     24 C24        -8.9819    1.3519   62.8251 C.3     1  ZINC001045463759   -0.1500
     25 C25        -9.7073    0.3181   63.6901 C.3     1  ZINC001045463759    0.2300
     26 F26       -11.0919    0.4555   63.8363 F       1  ZINC001045463759   -0.1400
     27 F27        -9.0287   -0.1795   64.8076 F       1  ZINC001045463759   -0.1500
     28 H28        -9.1740   -1.7718   60.3028 H       1  ZINC001045463759    0.4000
     29 H29       -10.2596   -3.4161   58.7389 H       1  ZINC001045463759    0.0700
     30 H30       -11.5742   -3.3621   59.9378 H       1  ZINC001045463759    0.0800
     31 H31       -12.3929   -4.2122   57.7570 H       1  ZINC001045463759    0.0700
     32 H32       -13.1607   -2.6594   58.1665 H       1  ZINC001045463759    0.0700
     33 H33       -10.7564   -3.0244   56.3219 H       1  ZINC001045463759    0.0700
     34 H34       -12.4247   -2.6914   55.7988 H       1  ZINC001045463759    0.0700
     35 H35       -11.0788   -0.6097   55.8594 H       1  ZINC001045463759    0.0700
     36 H36       -12.3933   -0.5557   57.0583 H       1  ZINC001045463759    0.0700
     37 H37       -10.7876    1.1213   58.6653 H       1  ZINC001045463759    0.4100
     38 H38        -8.8446    2.7306   58.9617 H       1  ZINC001045463759    0.1400
     39 H39        -6.9668    3.7869   57.7309 H       1  ZINC001045463759    0.1700
     40 H40        -6.2806    0.3607   54.3065 H       1  ZINC001045463759    0.1300
     41 H41        -8.0501   -0.5951   52.7602 H       1  ZINC001045463759    0.1000
     42 H42        -9.3616    0.2691   53.7271 H       1  ZINC001045463759    0.1100
     43 H43        -8.2832    2.5022   53.1937 H       1  ZINC001045463759    0.1000
     44 H44        -6.9718    1.6381   52.2269 H       1  ZINC001045463759    0.1000
     45 H45        -7.9761    1.6439   63.1271 H       1  ZINC001045463759    0.1400
     46 H46        -9.5834    2.1388   62.3701 H       1  ZINC001045463759    0.1300
@<TRIPOS>BOND
     1     1     2    2
     2     2     3   am
     3     2    22    1
     4     3     4    1
     5     3    28    1
     6     4     5    1
     7     4    10    1
     8     4     6    1
     9     6     7    1
    10     6    29    1
    11     6    30    1
    12     7     8    1
    13     7    31    1
    14     7    32    1
    15     8     9    1
    16     8    33    1
    17     8    34    1
    18     9    10    1
    19     9    35    1
    20     9    36    1
    21    10    11    1
    22    10    12    1
    23    12    13    1
    24    12    37    1
    25    13    21   ar
    26    13    14   ar
    27    14    15   ar
    28    14    38    1
    29    15    16   ar
    30    15    39    1
    31    16    17   ar
    32    17    18    1
    33    17    21   ar
    34    18    20    1
    35    18    19    1
    36    18    40    1
    37    19    20    1
    38    19    41    1
    39    19    42    1
    40    20    43    1
    41    20    44    1
    42    22    23    1
    43    22    25    1
    44    22    24    1
    45    24    25    1
    46    24    45    1
    47    24    46    1
    48    25    26    1
    49    25    27    1
@<TRIPOS>SUBSTRUCTURE
     1 ZINC001045463759        1 TEMP              0 ****  ****    0 ROOT


##########                                Name:    ZINC000028372981
##########                DOCK_Rotatable_Bonds:                   7
##########                         Heavy_Atoms:                  28
##########                    Molecular_Weight:             380.443
##########                DOCK_Rotatable_Bonds:                   7
##########                       Formal_Charge:         1.78814e-07
##########                     HBond_Acceptors:                   6
##########                        HBond_Donors:                   1
##########                         Heavy_Atoms:                  28
##########                          Grid_Score:          -27.446005
##########                     Grid_vdw_energy:          -27.273453
##########                      Grid_es_energy:           -0.172552
##########           Internal_energy_repulsive:          172.109451

@<TRIPOS>MOLECULE
ZINC000028372981
 52 54 1 0 0
SMALL
USER_CHARGES


@<TRIPOS>ATOM
      1 C1         -9.7646   -0.9406   52.1817 C.3     1  ZINC000028372981   -0.1800
      2 C2         -9.8259   -0.8768   53.6860 C.2     1  ZINC000028372981    0.5200
      3 O3        -10.5156   -1.6640   54.2988 O.2     1  ZINC000028372981   -0.5100
      4 N4         -9.1143    0.0552   54.3505 N.am    1  ZINC000028372981   -0.5500
      5 C5         -8.2477    1.0549   53.7211 C.3     1  ZINC000028372981    0.1000
      6 C6         -7.6658    1.8746   54.8844 C.3     1  ZINC000028372981   -0.0900
      7 C7         -8.2693    1.2536   56.1245 C.ar    1  ZINC000028372981   -0.1500
      8 C8         -8.1181    1.5711   57.4557 C.ar    1  ZINC000028372981    0.0000
      9 C9         -8.7912    0.8311   58.4321 C.ar    1  ZINC000028372981   -0.1600
     10 C10        -8.6287    1.1634   59.8595 C.2     1  ZINC000028372981    0.5200
     11 O11        -8.3007    2.2863   60.1883 O.2     1  ZINC000028372981   -0.5000
     12 O12        -8.8440    0.2221   60.7993 O.3     1  ZINC000028372981   -0.3200
     13 C13        -9.1224    0.6869   62.1463 C.3     1  ZINC000028372981    0.0700
     14 H14        -8.6546    1.6595   62.2990 H       1  ZINC000028372981    0.1200
     15 C15        -8.5600   -0.3139   63.1577 C.3     1  ZINC000028372981   -0.1700
     16 C16       -10.6122    0.8105   62.3372 C.2     1  ZINC000028372981    0.5200
     17 O17       -11.0748    0.9040   63.4544 O.2     1  ZINC000028372981   -0.4900
     18 N18       -11.4305    0.8174   61.2662 N.am    1  ZINC000028372981   -0.6600
     19 C19       -12.8137    0.9322   61.4434 C.ar    1  ZINC000028372981    0.1500
     20 C20       -13.3448    1.0403   62.7218 C.ar    1  ZINC000028372981   -0.1300
     21 C21       -14.7107    1.1539   62.8934 C.ar    1  ZINC000028372981   -0.1000
     22 C22       -15.5488    1.1607   61.7937 C.ar    1  ZINC000028372981   -0.1300
     23 C23       -15.0230    1.0536   60.5190 C.ar    1  ZINC000028372981   -0.0700
     24 C24       -15.9401    1.0619   59.3233 C.3     1  ZINC000028372981   -0.1200
     25 C25       -13.6584    0.9388   60.3408 C.ar    1  ZINC000028372981   -0.1200
     26 C26       -13.0864    0.8212   58.9517 C.3     1  ZINC000028372981   -0.1200
     27 C27        -9.6242   -0.2227   58.0449 C.ar    1  ZINC000028372981   -0.0200
     28 C28        -9.7734   -0.5290   56.7140 C.ar    1  ZINC000028372981   -0.1800
     29 C29        -9.0962    0.2072   55.7357 C.ar    1  ZINC000028372981    0.1900
     30 H30        -8.7367   -1.1206   51.8671 H       1  ZINC000028372981    0.1000
     31 H31       -10.4006   -1.7514   51.8262 H       1  ZINC000028372981    0.1000
     32 H32       -10.1124    0.0040   51.7635 H       1  ZINC000028372981    0.1000
     33 H33        -7.4474    0.5656   53.1660 H       1  ZINC000028372981    0.0900
     34 H34        -8.8296    1.6970   53.0600 H       1  ZINC000028372981    0.0900
     35 H35        -6.5796    1.7874   54.9053 H       1  ZINC000028372981    0.1000
     36 H36        -7.9612    2.9203   54.7980 H       1  ZINC000028372981    0.1000
     37 H37        -7.4758    2.3893   57.7459 H       1  ZINC000028372981    0.1400
     38 H38        -9.0278   -1.2866   63.0050 H       1  ZINC000028372981    0.0800
     39 H39        -7.4825   -0.4034   63.0197 H       1  ZINC000028372981    0.0800
     40 H40        -8.7690    0.0350   64.1690 H       1  ZINC000028372981    0.0800
     41 H41       -11.0605    0.7426   60.3727 H       1  ZINC000028372981    0.4100
     42 H42       -12.6902    1.0399   63.5809 H       1  ZINC000028372981    0.1400
     43 H43       -15.1244    1.2381   63.8874 H       1  ZINC000028372981    0.1300
     44 H44       -16.6165    1.2500   61.9304 H       1  ZINC000028372981    0.1200
     45 H45       -16.0825    2.0871   58.9816 H       1  ZINC000028372981    0.0700
     46 H46       -15.4978    0.4699   58.5221 H       1  ZINC000028372981    0.0700
     47 H47       -16.9036    0.6345   59.6014 H       1  ZINC000028372981    0.0700
     48 H48       -12.8694    1.8160   58.5626 H       1  ZINC000028372981    0.0700
     49 H49       -12.1674    0.2359   58.9854 H       1  ZINC000028372981    0.0600
     50 H50       -13.8085    0.3267   58.3020 H       1  ZINC000028372981    0.0800
     51 H51       -10.1511   -0.7964   58.7929 H       1  ZINC000028372981    0.1500
     52 H52       -10.4180   -1.3445   56.4206 H       1  ZINC000028372981    0.1500
@<TRIPOS>BOND
     1     1     2    1
     2     1    30    1
     3     1    31    1
     4     1    32    1
     5     2     3    2
     6     2     4   am
     7     4    29    1
     8     4     5    1
     9     5     6    1
    10     5    33    1
    11     5    34    1
    12     6     7    1
    13     6    35    1
    14     6    36    1
    15     7    29   ar
    16     7     8   ar
    17     8     9   ar
    18     8    37    1
    19     9    10    1
    20     9    27   ar
    21    10    11    2
    22    10    12    1
    23    12    13    1
    24    13    14    1
    25    13    15    1
    26    13    16    1
    27    15    38    1
    28    15    39    1
    29    15    40    1
    30    16    17    2
    31    16    18   am
    32    18    19    1
    33    18    41    1
    34    19    25   ar
    35    19    20   ar
    36    20    21   ar
    37    20    42    1
    38    21    22   ar
    39    21    43    1
    40    22    23   ar
    41    22    44    1
    42    23    24    1
    43    23    25   ar
    44    24    45    1
    45    24    46    1
    46    24    47    1
    47    25    26    1
    48    26    48    1
    49    26    49    1
    50    26    50    1
    51    27    28   ar
    52    27    51    1
    53    28    29   ar
    54    28    52    1
@<TRIPOS>SUBSTRUCTURE
     1 ZINC000028372981        1 TEMP              0 ****  ****    0 ROOT


##########                                Name:    ZINC000446721380
##########                DOCK_Rotatable_Bonds:                   8
##########                         Heavy_Atoms:                  26
##########                    Molecular_Weight:             419.318
##########                DOCK_Rotatable_Bonds:                   8
##########                       Formal_Charge:           0.0199992
##########                     HBond_Acceptors:                   5
##########                        HBond_Donors:                   2
##########                         Heavy_Atoms:                  26
##########                          Grid_Score:          -27.406324
##########                     Grid_vdw_energy:          -26.607653
##########                      Grid_es_energy:           -0.798671
##########           Internal_energy_repulsive:          160.668015

@<TRIPOS>MOLECULE
ZINC000446721380
 49 51 1 0 0
SMALL
USER_CHARGES


@<TRIPOS>ATOM
      1 C1         -0.0333   -1.4011   48.7020 C.3     1  ZINC000446721380   -0.1200
      2 C2          0.5379   -0.3013   49.5594 C.ar    1  ZINC000446721380   -0.0300
      3 C3          0.2987    1.0214   49.2359 C.ar    1  ZINC000446721380   -0.1600
      4 C4          0.8214    2.0329   50.0207 C.ar    1  ZINC000446721380   -0.0500
      5 C5          1.5840    1.7240   51.1301 C.ar    1  ZINC000446721380   -0.1500
      6 C6          2.1528    2.8268   51.9852 C.3     1  ZINC000446721380    0.1900
      7 N7          1.4542    2.8564   53.2724 N.am    1  ZINC000446721380   -0.7300
      8 C8          0.4279    3.7091   53.4627 C.2     1  ZINC000446721380    0.7100
      9 O9          0.0809    4.4526   52.5655 O.2     1  ZINC000446721380   -0.5700
     10 N10        -0.2138    3.7374   54.6476 N.am    1  ZINC000446721380   -0.6900
     11 C11        -1.2798    4.6230   54.8453 C.ar    1  ZINC000446721380    0.2000
     12 C12        -1.6800    5.4694   53.8205 C.ar    1  ZINC000446721380   -0.1200
     13 C13        -2.7327    6.3420   54.0185 C.ar    1  ZINC000446721380   -0.0800
     14 C14        -3.3876    6.3732   55.2356 C.ar    1  ZINC000446721380   -0.1300
     15 C15        -2.9915    5.5318   56.2592 C.ar    1  ZINC000446721380   -0.0700
     16 C16        -1.9432    4.6527   56.0660 C.ar    1  ZINC000446721380   -0.1300
     17 Br17       -1.4023    3.5020   57.4656 Br      1  ZINC000446721380   -0.0500
     18 C18         1.8254    0.3972   51.4569 C.ar    1  ZINC000446721380    0.1500
     19 O19         2.5751    0.0906   52.5482 O.3     1  ZINC000446721380   -0.3100
     20 C20         3.8489   -0.5122   52.3117 C.3     1  ZINC000446721380    0.0700
     21 C21         4.6108   -0.6297   53.6333 C.3     1  ZINC000446721380   -0.1200
     22 H22         4.0327   -1.2057   54.3559 H       1  ZINC000446721380    0.1000
     23 C23         4.9378    0.7747   54.1968 C.3     1  ZINC000446721380   -0.1500
     24 C24         6.3802    0.5824   54.7307 C.3     1  ZINC000446721380    0.0500
     25 O25         6.9840   -0.2990   53.7596 O.3     1  ZINC000446721380   -0.3800
     26 C26         5.9895   -1.2790   53.4051 C.3     1  ZINC000446721380    0.0500
     27 C27         1.2954   -0.6156   50.6713 C.ar    1  ZINC000446721380   -0.2100
     28 H28        -1.0213   -1.6746   49.0722 H       1  ZINC000446721380    0.0800
     29 H29        -0.1145   -1.0538   47.6720 H       1  ZINC000446721380    0.0700
     30 H30         0.6230   -2.2706   48.7415 H       1  ZINC000446721380    0.0700
     31 H31        -0.2970    1.2650   48.3687 H       1  ZINC000446721380    0.1300
     32 H32         0.6334    3.0654   49.7657 H       1  ZINC000446721380    0.1300
     33 H33         3.2147    2.6461   52.1521 H       1  ZINC000446721380    0.0800
     34 H34         2.0223    3.7832   51.4788 H       1  ZINC000446721380    0.0800
     35 H35         1.7302    2.2623   53.9878 H       1  ZINC000446721380    0.4000
     36 H36         0.0630    3.1441   55.3634 H       1  ZINC000446721380    0.4100
     37 H37        -1.1688    5.4461   52.8694 H       1  ZINC000446721380    0.1500
     38 H38        -3.0441    7.0010   53.2214 H       1  ZINC000446721380    0.1300
     39 H39        -4.2102    7.0564   55.3876 H       1  ZINC000446721380    0.1300
     40 H40        -3.5046    5.5590   57.2091 H       1  ZINC000446721380    0.1400
     41 H41         3.7072   -1.5050   51.8845 H       1  ZINC000446721380    0.0700
     42 H42         4.4193    0.1043   51.6169 H       1  ZINC000446721380    0.0700
     43 H43         4.9120    1.5262   53.4078 H       1  ZINC000446721380    0.0800
     44 H44         4.2557    1.0379   55.0053 H       1  ZINC000446721380    0.0900
     45 H45         6.9074    1.5358   54.7639 H       1  ZINC000446721380    0.1000
     46 H46         6.3659    0.1160   55.7158 H       1  ZINC000446721380    0.0600
     47 H47         6.0964   -2.1608   54.0369 H       1  ZINC000446721380    0.0600
     48 H48         6.0996   -1.5562   52.3567 H       1  ZINC000446721380    0.0900
     49 H49         1.4819   -1.6491   50.9236 H       1  ZINC000446721380    0.1300
@<TRIPOS>BOND
     1     1     2    1
     2     1    28    1
     3     1    29    1
     4     1    30    1
     5     2    27   ar
     6     2     3   ar
     7     3     4   ar
     8     3    31    1
     9     4     5   ar
    10     4    32    1
    11     5     6    1
    12     5    18   ar
    13     6     7    1
    14     6    33    1
    15     6    34    1
    16     7     8   am
    17     7    35    1
    18     8     9    2
    19     8    10   am
    20    10    11    1
    21    10    36    1
    22    11    16   ar
    23    11    12   ar
    24    12    13   ar
    25    12    37    1
    26    13    14   ar
    27    13    38    1
    28    14    15   ar
    29    14    39    1
    30    15    16   ar
    31    15    40    1
    32    16    17    1
    33    18    19    1
    34    18    27   ar
    35    19    20    1
    36    20    21    1
    37    20    41    1
    38    20    42    1
    39    21    22    1
    40    21    26    1
    41    21    23    1
    42    23    24    1
    43    23    43    1
    44    23    44    1
    45    24    25    1
    46    24    45    1
    47    24    46    1
    48    25    26    1
    49    26    47    1
    50    26    48    1
    51    27    49    1
@<TRIPOS>SUBSTRUCTURE
     1 ZINC000446721380        1 TEMP              0 ****  ****    0 ROOT


##########                                Name:    ZINC001067560454
##########                DOCK_Rotatable_Bonds:                   4
##########                         Heavy_Atoms:                  25
##########                    Molecular_Weight:             342.444
##########                DOCK_Rotatable_Bonds:                   4
##########                       Formal_Charge:          0.00999971
##########                     HBond_Acceptors:                   7
##########                        HBond_Donors:                   1
##########                         Heavy_Atoms:                  25
##########                          Grid_Score:          -27.394070
##########                     Grid_vdw_energy:          -26.606268
##########                      Grid_es_energy:           -0.787801
##########           Internal_energy_repulsive:           12.970985

@<TRIPOS>MOLECULE
ZINC001067560454
 51 54 1 0 0
SMALL
USER_CHARGES


@<TRIPOS>ATOM
      1 C1        -13.1776    0.2374   56.1145 C.3     1  ZINC001067560454   -0.1500
      2 C2        -12.4611   -0.4116   54.9285 C.3     1  ZINC001067560454    0.1000
      3 H3        -12.8437   -1.4217   54.7816 H       1  ZINC001067560454    0.0600
      4 C4        -12.7110    0.4170   53.6663 C.3     1  ZINC001067560454   -0.1200
      5 C5        -11.9759   -0.2250   52.4865 C.3     1  ZINC001067560454    0.1400
      6 H6        -12.3728   -1.2248   52.3104 H       1  ZINC001067560454    0.0900
      7 N7        -12.1649    0.5950   51.2873 N.am    1  ZINC001067560454   -0.7200
      8 C8        -13.2023    0.3525   50.4618 C.2     1  ZINC001067560454    0.5400
      9 O9        -13.9787   -0.5452   50.7110 O.2     1  ZINC001067560454   -0.5300
     10 C10       -13.3978    1.1972   49.2291 C.3     1  ZINC001067560454   -0.1100
     11 C11       -12.6472    2.5287   49.2961 C.3     1  ZINC001067560454   -0.1300
     12 C12       -13.1777    0.4293   47.9150 C.3     1  ZINC001067560454   -0.1200
     13 C13       -14.6713    0.0668   47.9683 C.3     1  ZINC001067560454   -0.1400
     14 C14       -14.8697    1.3403   48.8074 C.3     1  ZINC001067560454   -0.1200
     15 C15       -10.4832   -0.3175   52.8147 C.3     1  ZINC001067560454   -0.1200
     16 C16       -10.2978   -1.1247   54.1016 C.3     1  ZINC001067560454    0.0600
     17 N17       -11.0192   -0.4692   55.2000 N.3     1  ZINC001067560454   -0.4900
     18 C18       -10.7665   -1.1002   56.4055 C.ar    1  ZINC001067560454    0.4400
     19 C19       -10.0642   -0.4411   57.4286 C.ar    1  ZINC001067560454   -0.0800
     20 N20        -9.5053    0.7855   57.5631 N.2     1  ZINC001067560454   -0.4700
     21 C21        -8.9643    0.8880   58.7423 C.2     1  ZINC001067560454    0.2700
     22 N22        -9.1431   -0.2699   59.4390 N.pl3   1  ZINC001067560454   -0.4800
     23 C23        -8.6785   -0.5424   60.8014 C.3     1  ZINC001067560454    0.0800
     24 C24        -9.8386   -1.1332   58.6307 C.ar    1  ZINC001067560454    0.2800
     25 N25       -10.2939   -2.3753   58.7560 N.ar    1  ZINC001067560454   -0.5200
     26 C26       -10.9476   -2.9530   57.7701 C.ar    1  ZINC001067560454    0.3300
     27 N27       -11.1874   -2.3418   56.6245 N.ar    1  ZINC001067560454   -0.5100
     28 H28       -12.7952    1.2475   56.2615 H       1  ZINC001067560454    0.0700
     29 H29       -14.2480    0.2799   55.9132 H       1  ZINC001067560454    0.0700
     30 H30       -13.0001   -0.3528   57.0135 H       1  ZINC001067560454    0.0500
     31 H31       -13.7802    0.4466   53.4563 H       1  ZINC001067560454    0.0800
     32 H32       -12.3409    1.4310   53.8174 H       1  ZINC001067560454    0.0800
     33 H33       -11.5433    1.3122   51.0873 H       1  ZINC001067560454    0.4000
     34 H34       -11.6089    2.3469   49.5735 H       1  ZINC001067560454    0.0600
     35 H35       -12.6830    3.0154   48.3215 H       1  ZINC001067560454    0.0700
     36 H36       -13.1149    3.1724   50.0411 H       1  ZINC001067560454    0.0600
     37 H37       -12.9137    1.0702   47.0738 H       1  ZINC001067560454    0.0900
     38 H38       -12.5158   -0.4306   48.0174 H       1  ZINC001067560454    0.0700
     39 H39       -15.1643    0.1028   46.9969 H       1  ZINC001067560454    0.0700
     40 H40       -14.8781   -0.8530   48.5152 H       1  ZINC001067560454    0.0800
     41 H41       -15.5737    1.2157   49.6302 H       1  ZINC001067560454    0.0800
     42 H42       -15.0682    2.2302   48.2102 H       1  ZINC001067560454    0.0900
     43 H43        -9.9606   -0.8125   51.9962 H       1  ZINC001067560454    0.0800
     44 H44       -10.0779    0.6850   52.9525 H       1  ZINC001067560454    0.0800
     45 H45       -10.6907   -2.1314   53.9586 H       1  ZINC001067560454    0.0700
     46 H46        -9.2371   -1.1804   54.3459 H       1  ZINC001067560454    0.0800
     47 H47        -8.4492    1.7615   59.1139 H       1  ZINC001067560454    0.2300
     48 H48        -9.4488   -0.2474   61.5139 H       1  ZINC001067560454    0.0800
     49 H49        -8.4728   -1.6074   60.9090 H       1  ZINC001067560454    0.0900
     50 H50        -7.7680    0.0248   60.9951 H       1  ZINC001067560454    0.0900
     51 H51       -11.3041   -3.9635   57.9046 H       1  ZINC001067560454    0.2100
@<TRIPOS>BOND
     1     1     2    1
     2     1    28    1
     3     1    29    1
     4     1    30    1
     5     2     3    1
     6     2    17    1
     7     2     4    1
     8     4     5    1
     9     4    31    1
    10     4    32    1
    11     5     6    1
    12     5     7    1
    13     5    15    1
    14     7     8   am
    15     7    33    1
    16     8     9    2
    17     8    10    1
    18    10    14    1
    19    10    11    1
    20    10    12    1
    21    11    34    1
    22    11    35    1
    23    11    36    1
    24    12    13    1
    25    12    37    1
    26    12    38    1
    27    13    14    1
    28    13    39    1
    29    13    40    1
    30    14    41    1
    31    14    42    1
    32    15    16    1
    33    15    43    1
    34    15    44    1
    35    16    17    1
    36    16    45    1
    37    16    46    1
    38    17    18    1
    39    18    27   ar
    40    18    19   ar
    41    19    24   ar
    42    19    20    1
    43    20    21    2
    44    21    22    1
    45    21    47    1
    46    22    23    1
    47    22    24    1
    48    23    48    1
    49    23    49    1
    50    23    50    1
    51    24    25   ar
    52    25    26   ar
    53    26    27   ar
    54    26    51    1
@<TRIPOS>SUBSTRUCTURE
     1 ZINC001067560454        1 TEMP              0 ****  ****    0 ROOT


##########                                Name:    ZINC001079355651
##########                DOCK_Rotatable_Bonds:                   5
##########                         Heavy_Atoms:                  25
##########                    Molecular_Weight:             353.851
##########                DOCK_Rotatable_Bonds:                   5
##########                       Formal_Charge:           0.0199997
##########                     HBond_Acceptors:                   5
##########                        HBond_Donors:                   1
##########                         Heavy_Atoms:                  25
##########                          Grid_Score:          -27.340975
##########                     Grid_vdw_energy:          -26.098042
##########                      Grid_es_energy:           -1.242933
##########           Internal_energy_repulsive:            4.890327

@<TRIPOS>MOLECULE
ZINC001079355651
 45 47 1 0 0
SMALL
USER_CHARGES


@<TRIPOS>ATOM
      1 C1        -10.8421   -0.4914   52.0647 C.3     1  ZINC001079355651   -0.1500
      2 C2         -9.8023   -0.3988   53.1833 C.3     1  ZINC001079355651   -0.1000
      3 H3         -8.8041   -0.5867   52.7880 H       1  ZINC001079355651    0.0900
      4 C4        -10.1323   -1.4050   54.3067 C.3     1  ZINC001079355651    0.0300
      5 N5         -9.7754   -0.6950   55.5619 N.3     1  ZINC001079355651   -0.5100
      6 C6        -10.4673   -1.2852   56.7155 C.3     1  ZINC001079355651    0.1600
      7 C7        -10.0527   -0.5896   57.9448 C.1     1  ZINC001079355651   -0.1400
      8 C8         -9.7222   -0.0348   58.9252 C.1     1  ZINC001079355651   -0.1300
      9 C9         -9.3189    0.6418   60.1211 C.ar    1  ZINC001079355651    0.0300
     10 C10        -9.3805    2.0339   60.1929 C.ar    1  ZINC001079355651   -0.0900
     11 C11        -8.9905    2.6807   61.3479 C.ar    1  ZINC001079355651   -0.1000
     12 C12        -8.5392    1.9523   62.4335 C.ar    1  ZINC001079355651   -0.1000
     13 C13        -8.4750    0.5705   62.3691 C.ar    1  ZINC001079355651   -0.0300
     14 Cl14       -7.9064   -0.3352   63.7366 Cl      1  ZINC001079355651   -0.0600
     15 C15        -8.8681   -0.0886   61.2213 C.ar    1  ZINC001079355651   -0.0900
     16 C16       -10.2229    0.7026   55.3305 C.3     1  ZINC001079355651    0.0200
     17 C17        -9.8601    0.9886   53.8551 C.3     1  ZINC001079355651    0.1500
     18 H18       -10.6297    1.6033   53.3883 H       1  ZINC001079355651    0.1000
     19 N19        -8.5579    1.6547   53.7711 N.am    1  ZINC001079355651   -0.7100
     20 C20        -8.2085    2.3121   52.6476 C.2     1  ZINC001079355651    0.5600
     21 O21        -8.9740    2.3535   51.7049 O.2     1  ZINC001079355651   -0.5300
     22 C22        -6.8909    2.9842   52.5622 C.ar    1  ZINC001079355651   -0.0900
     23 C23        -5.9587    2.8723   53.5981 C.ar    1  ZINC001079355651   -0.1400
     24 C24        -4.7422    3.5156   53.4769 C.ar    1  ZINC001079355651    0.1000
     25 N25        -4.4563    4.2263   52.4041 N.ar    1  ZINC001079355651   -0.4700
     26 C26        -5.3062    4.3574   51.4051 C.ar    1  ZINC001079355651    0.1000
     27 C27        -6.5430    3.7432   51.4407 C.ar    1  ZINC001079355651   -0.1200
     28 H28       -10.6249    0.2583   51.3038 H       1  ZINC001079355651    0.0600
     29 H29       -10.8066   -1.4845   51.6170 H       1  ZINC001079355651    0.0700
     30 H30       -11.8356   -0.3138   52.4766 H       1  ZINC001079355651    0.0600
     31 H31       -11.1943   -1.6503   54.2975 H       1  ZINC001079355651    0.0600
     32 H32        -9.5316   -2.3079   54.1967 H       1  ZINC001079355651    0.0900
     33 H33       -11.5445   -1.1816   56.5851 H       1  ZINC001079355651    0.0700
     34 H34       -10.2104   -2.3417   56.7917 H       1  ZINC001079355651    0.1100
     35 H35        -9.7323    2.6042   59.3460 H       1  ZINC001079355651    0.1300
     36 H36        -9.0376    3.7581   61.4041 H       1  ZINC001079355651    0.1400
     37 H37        -8.2351    2.4633   63.3351 H       1  ZINC001079355651    0.1400
     38 H38        -8.8179   -1.1663   61.1717 H       1  ZINC001079355651    0.1400
     39 H39       -11.2991    0.7871   55.4816 H       1  ZINC001079355651    0.0600
     40 H40        -9.6905    1.3865   55.9915 H       1  ZINC001079355651    0.0900
     41 H41        -7.9473    1.6227   54.5242 H       1  ZINC001079355651    0.4000
     42 H42        -6.1863    2.2920   54.4801 H       1  ZINC001079355651    0.1400
     43 H43        -4.0156    3.4355   54.2719 H       1  ZINC001079355651    0.1600
     44 H44        -5.0301    4.9498   50.5452 H       1  ZINC001079355651    0.1700
     45 H45        -7.2344    3.8551   50.6185 H       1  ZINC001079355651    0.1500
@<TRIPOS>BOND
     1     1     2    1
     2     1    28    1
     3     1    29    1
     4     1    30    1
     5     2     3    1
     6     2    17    1
     7     2     4    1
     8     4     5    1
     9     4    31    1
    10     4    32    1
    11     5     6    1
    12     5    16    1
    13     6     7    1
    14     6    33    1
    15     6    34    1
    16     7     8    3
    17     8     9    1
    18     9    15   ar
    19     9    10   ar
    20    10    11   ar
    21    10    35    1
    22    11    12   ar
    23    11    36    1
    24    12    13   ar
    25    12    37    1
    26    13    14    1
    27    13    15   ar
    28    15    38    1
    29    16    17    1
    30    16    39    1
    31    16    40    1
    32    17    18    1
    33    17    19    1
    34    19    20   am
    35    19    41    1
    36    20    21    2
    37    20    22    1
    38    22    27   ar
    39    22    23   ar
    40    23    24   ar
    41    23    42    1
    42    24    25   ar
    43    24    43    1
    44    25    26   ar
    45    26    27   ar
    46    26    44    1
    47    27    45    1
@<TRIPOS>SUBSTRUCTURE
     1 ZINC001079355651        1 TEMP              0 ****  ****    0 ROOT


##########                                Name:    ZINC000444205493
##########                DOCK_Rotatable_Bonds:                   4
##########                         Heavy_Atoms:                  24
##########                    Molecular_Weight:             415.351
##########                DOCK_Rotatable_Bonds:                   4
##########                       Formal_Charge:         -0.00999995
##########                     HBond_Acceptors:                   6
##########                        HBond_Donors:                   1
##########                         Heavy_Atoms:                  24
##########                          Grid_Score:          -27.331905
##########                     Grid_vdw_energy:          -23.591251
##########                      Grid_es_energy:           -3.740654
##########           Internal_energy_repulsive:            4.412789

@<TRIPOS>MOLECULE
ZINC000444205493
 47 49 1 0 0
SMALL
USER_CHARGES


@<TRIPOS>ATOM
      1 C1         -7.8627    0.8274   66.8680 C.3     1  ZINC000444205493   -0.1700
      2 C2         -8.4610    0.4602   65.5346 C.2     1  ZINC000444205493    0.5100
      3 O3         -9.1898   -0.5049   65.4420 O.2     1  ZINC000444205493   -0.5100
      4 N4         -8.1861    1.2040   64.4448 N.am    1  ZINC000444205493   -0.6800
      5 C5         -8.7418    0.8629   63.2064 C.ar    1  ZINC000444205493    0.2300
      6 C6         -8.1364   -0.1033   62.4147 C.ar    1  ZINC000444205493   -0.1400
      7 C7         -8.6876   -0.4383   61.1930 C.ar    1  ZINC000444205493    0.0200
      8 C8         -9.8408    0.1880   60.7578 C.ar    1  ZINC000444205493   -0.6900
      9 S9        -10.5398   -0.2421   59.1987 S.o2    1  ZINC000444205493    2.7100
     10 O10        -9.9201   -1.4579   58.8026 O.2     1  ZINC000444205493   -0.9500
     11 O11       -11.9467   -0.0952   59.3354 O.2     1  ZINC000444205493   -0.9500
     12 N12       -10.0536    0.9069   58.1097 N.am    1  ZINC000444205493   -1.0100
     13 C13       -10.3390    2.3515   58.1982 C.3     1  ZINC000444205493    0.1200
     14 C14        -9.2176    3.0325   57.3710 C.3     1  ZINC000444205493   -0.1200
     15 C15        -9.0184    2.0163   56.2298 C.3     1  ZINC000444205493   -0.0700
     16 C16       -10.0129    2.2710   55.0923 C.3     1  ZINC000444205493   -0.1100
     17 C17        -9.1901    3.0726   54.0497 C.3     1  ZINC000444205493   -0.1200
     18 C18        -7.7867    2.4212   54.1421 C.3     1  ZINC000444205493   -0.1000
     19 H19        -7.7539    1.5016   53.5579 H       1  ZINC000444205493    0.0700
     20 C20        -6.7108    3.3974   53.6624 C.3     1  ZINC000444205493   -0.1500
     21 C21        -7.6093    2.1130   55.6462 C.3     1  ZINC000444205493   -0.1100
     22 C22        -9.2585    0.6572   56.8952 C.3     1  ZINC000444205493    0.1300
     23 C23       -10.4473    1.1508   61.5438 C.ar    1  ZINC000444205493    0.0300
     24 C24        -9.9042    1.4867   62.7691 C.ar    1  ZINC000444205493   -0.1500
     25 Br25      -10.7338    2.8033   63.8434 Br      1  ZINC000444205493   -0.0300
     26 H26        -8.1960    0.1164   67.6240 H       1  ZINC000444205493    0.1000
     27 H27        -6.7752    0.8004   66.7982 H       1  ZINC000444205493    0.1000
     28 H28        -8.1841    1.8311   67.1464 H       1  ZINC000444205493    0.1000
     29 H29        -7.6032    1.9758   64.5188 H       1  ZINC000444205493    0.4200
     30 H30        -7.2350   -0.5926   62.7534 H       1  ZINC000444205493    0.1600
     31 H31        -8.2167   -1.1900   60.5768 H       1  ZINC000444205493    0.1500
     32 H32       -11.3154    2.5720   57.7667 H       1  ZINC000444205493    0.0800
     33 H33       -10.2989    2.6828   59.2359 H       1  ZINC000444205493    0.0800
     34 H34        -9.5480    3.9962   56.9832 H       1  ZINC000444205493    0.0900
     35 H35        -8.3076    3.1413   57.9609 H       1  ZINC000444205493    0.0800
     36 H36       -10.3558    1.3282   54.6659 H       1  ZINC000444205493    0.0700
     37 H37       -10.8578    2.8607   55.4479 H       1  ZINC000444205493    0.0700
     38 H38        -9.6079    2.9487   53.0506 H       1  ZINC000444205493    0.0700
     39 H39        -9.1447    4.1270   54.3221 H       1  ZINC000444205493    0.0700
     40 H40        -6.7450    4.3026   54.2687 H       1  ZINC000444205493    0.0500
     41 H41        -5.7296    2.9327   53.7584 H       1  ZINC000444205493    0.0500
     42 H42        -6.8912    3.6526   52.6181 H       1  ZINC000444205493    0.0500
     43 H43        -7.0572    2.9180   56.1312 H       1  ZINC000444205493    0.0700
     44 H44        -7.0843    1.1666   55.7756 H       1  ZINC000444205493    0.0700
     45 H45        -8.3054    0.1972   57.1560 H       1  ZINC000444205493    0.0700
     46 H46        -9.8142    0.0057   56.2207 H       1  ZINC000444205493    0.0800
     47 H47       -11.3482    1.6379   61.2013 H       1  ZINC000444205493    0.1500
@<TRIPOS>BOND
     1     1     2    1
     2     1    26    1
     3     1    27    1
     4     1    28    1
     5     2     3    2
     6     2     4   am
     7     4     5    1
     8     4    29    1
     9     5    24   ar
    10     5     6   ar
    11     6     7   ar
    12     6    30    1
    13     7     8   ar
    14     7    31    1
    15     8     9    1
    16     8    23   ar
    17     9    10    2
    18     9    11    2
    19     9    12   am
    20    12    22    1
    21    12    13    1
    22    13    14    1
    23    13    32    1
    24    13    33    1
    25    14    15    1
    26    14    34    1
    27    14    35    1
    28    15    21    1
    29    15    16    1
    30    15    22    1
    31    16    17    1
    32    16    36    1
    33    16    37    1
    34    17    18    1
    35    17    38    1
    36    17    39    1
    37    18    19    1
    38    18    20    1
    39    18    21    1
    40    20    40    1
    41    20    41    1
    42    20    42    1
    43    21    43    1
    44    21    44    1
    45    22    45    1
    46    22    46    1
    47    23    24   ar
    48    23    47    1
    49    24    25    1
@<TRIPOS>SUBSTRUCTURE
     1 ZINC000444205493        1 TEMP              0 ****  ****    0 ROOT


##########                                Name:    ZINC000763800048
##########                DOCK_Rotatable_Bonds:                   8
##########                         Heavy_Atoms:                  23
##########                    Molecular_Weight:             329.783
##########                DOCK_Rotatable_Bonds:                   8
##########                       Formal_Charge:           0.0199994
##########                     HBond_Acceptors:                   5
##########                        HBond_Donors:                   1
##########                         Heavy_Atoms:                  23
##########                          Grid_Score:          -27.321129
##########                     Grid_vdw_energy:          -27.191650
##########                      Grid_es_energy:           -0.129478
##########           Internal_energy_repulsive:            4.664521

@<TRIPOS>MOLECULE
ZINC000763800048
 39 40 1 0 0
SMALL
USER_CHARGES


@<TRIPOS>ATOM
      1 C1         -9.8475    5.0120   65.7310 C.3     1  ZINC000763800048    0.0400
      2 O2         -9.8824    3.5636   65.6344 O.3     1  ZINC000763800048   -0.3600
      3 C3        -11.0900    2.9791   65.6750 C.2     1  ZINC000763800048    0.4600
      4 O4        -12.0850    3.6553   65.7867 O.2     1  ZINC000763800048   -0.4900
      5 C5        -11.2046    1.4794   65.5814 C.3     1  ZINC000763800048   -0.0700
      6 C6         -9.9289    0.9126   65.0136 C.ar    1  ZINC000763800048   -0.0600
      7 C7         -8.8176    0.7668   65.8232 C.ar    1  ZINC000763800048   -0.1200
      8 C8         -7.6449    0.2470   65.3060 C.ar    1  ZINC000763800048   -0.1000
      9 C9         -7.5806   -0.1287   63.9788 C.ar    1  ZINC000763800048   -0.1100
     10 C10        -8.6956    0.0159   63.1628 C.ar    1  ZINC000763800048    0.1500
     11 N11        -8.6340   -0.3636   61.8185 N.am    1  ZINC000763800048   -0.6700
     12 C12        -8.6613    0.5746   60.8514 C.2     1  ZINC000763800048    0.5500
     13 O13        -8.7395    1.7524   61.1482 O.2     1  ZINC000763800048   -0.5200
     14 C14        -8.5968    0.1773   59.4445 C.2     1  ZINC000763800048   -0.2100
     15 C15        -9.3677    0.8024   58.5312 C.2     1  ZINC000763800048   -0.0100
     16 C16        -9.3016    0.4040   57.1161 C.ar    1  ZINC000763800048   -0.0800
     17 C17       -10.1972   -0.5439   56.6104 C.ar    1  ZINC000763800048   -0.0900
     18 C18       -10.1294   -0.9123   55.2840 C.ar    1  ZINC000763800048   -0.1100
     19 C19        -9.1767   -0.3465   54.4523 C.ar    1  ZINC000763800048   -0.0200
     20 Cl20       -9.0983   -0.8170   52.7831 Cl      1  ZINC000763800048   -0.0600
     21 C21        -8.2865    0.5933   54.9462 C.ar    1  ZINC000763800048   -0.1100
     22 C22        -8.3464    0.9755   56.2691 C.ar    1  ZINC000763800048   -0.0800
     23 C23        -9.8730    0.5338   63.6865 C.ar    1  ZINC000763800048   -0.1300
     24 H24        -8.8137    5.3544   65.6853 H       1  ZINC000763800048    0.1000
     25 H25       -10.4104    5.4450   64.9041 H       1  ZINC000763800048    0.0600
     26 H26       -10.2921    5.3240   66.6760 H       1  ZINC000763800048    0.0600
     27 H27       -11.3754    1.0653   66.5751 H       1  ZINC000763800048    0.1200
     28 H28       -12.0393    1.2186   64.9307 H       1  ZINC000763800048    0.1200
     29 H29        -8.8652    1.0599   66.8614 H       1  ZINC000763800048    0.1200
     30 H30        -6.7783    0.1351   65.9408 H       1  ZINC000763800048    0.1300
     31 H31        -6.6645   -0.5343   63.5755 H       1  ZINC000763800048    0.1400
     32 H32        -8.5716   -1.3023   61.5820 H       1  ZINC000763800048    0.4100
     33 H33        -7.9320   -0.6164   59.1374 H       1  ZINC000763800048    0.1300
     34 H34       -10.0336    1.5953   58.8384 H       1  ZINC000763800048    0.1400
     35 H35       -10.9400   -0.9862   57.2579 H       1  ZINC000763800048    0.1400
     36 H36       -10.8204   -1.6440   54.8922 H       1  ZINC000763800048    0.1400
     37 H37        -7.5465    1.0302   54.2921 H       1  ZINC000763800048    0.1400
     38 H38        -7.6521    1.7084   56.6527 H       1  ZINC000763800048    0.1400
     39 H39       -10.7417    0.6471   63.0548 H       1  ZINC000763800048    0.1300
@<TRIPOS>BOND
     1     1     2    1
     2     1    24    1
     3     1    25    1
     4     1    26    1
     5     2     3    1
     6     3     4    2
     7     3     5    1
     8     5     6    1
     9     5    27    1
    10     5    28    1
    11     6    23   ar
    12     6     7   ar
    13     7     8   ar
    14     7    29    1
    15     8     9   ar
    16     8    30    1
    17     9    10   ar
    18     9    31    1
    19    10    11    1
    20    10    23   ar
    21    11    12   am
    22    11    32    1
    23    12    13    2
    24    12    14    1
    25    14    15    2
    26    14    33    1
    27    15    16    1
    28    15    34    1
    29    16    22   ar
    30    16    17   ar
    31    17    18   ar
    32    17    35    1
    33    18    19   ar
    34    18    36    1
    35    19    20    1
    36    19    21   ar
    37    21    22   ar
    38    21    37    1
    39    22    38    1
    40    23    39    1
@<TRIPOS>SUBSTRUCTURE
     1 ZINC000763800048        1 TEMP              0 ****  ****    0 ROOT


##########                                Name:    ZINC000285228948
##########                DOCK_Rotatable_Bonds:                   8
##########                         Heavy_Atoms:                  23
##########                    Molecular_Weight:             339.822
##########                DOCK_Rotatable_Bonds:                   8
##########                       Formal_Charge:           0.0299997
##########                     HBond_Acceptors:                   7
##########                        HBond_Donors:                   3
##########                         Heavy_Atoms:                  23
##########                          Grid_Score:          -27.309397
##########                     Grid_vdw_energy:          -26.959745
##########                      Grid_es_energy:           -0.349652
##########           Internal_energy_repulsive:           26.869352

@<TRIPOS>MOLECULE
ZINC000285228948
 45 46 1 0 0
SMALL
USER_CHARGES


@<TRIPOS>ATOM
      1 C1        -10.6947    1.8960   53.5264 C.3     1  <0>        -0.1600
      2 C2         -9.3047    1.4565   53.9907 C.3     1  <0>         0.1800
      3 H3         -9.1513    1.7683   55.0239 H       1  <0>         0.1100
      4 C4         -8.2575    2.0925   53.1133 C.ar    1  <0>        -0.0900
      5 C5         -6.9415    2.1431   53.5337 C.ar    1  <0>        -0.1000
      6 C6         -5.9807    2.7263   52.7294 C.ar    1  <0>        -0.1100
      7 C7         -6.3362    3.2596   51.5033 C.ar    1  <0>        -0.0300
      8 Cl8        -5.1298    3.9918   50.4922 Cl      1  <0>        -0.0700
      9 C9         -7.6534    3.2087   51.0830 C.ar    1  <0>        -0.1100
     10 C10        -8.6123    2.6201   51.8857 C.ar    1  <0>        -0.0900
     11 N11        -9.1980   -0.0018   53.8998 N.am    1  <0>        -0.6100
     12 C12        -8.4877   -0.6156   52.7752 C.3     1  <0>         0.0600
     13 C13        -9.7533   -0.7787   54.8509 C.2     1  <0>         0.5200
     14 O14        -9.6663   -1.9861   54.7749 O.2     1  <0>        -0.5200
     15 C15       -10.4824   -0.1473   56.0088 C.3     1  <0>         0.0300
     16 N16       -10.2636   -0.9482   57.2207 N.3     1  <0>        -0.4900
     17 C17       -11.5260   -1.5887   57.6704 C.3     1  <0>         0.0400
     18 C18       -11.2469   -1.9157   59.1590 C.3     1  <0>        -0.1400
     19 C19       -10.4186   -0.6987   59.6308 C.3     1  <0>         0.1100
     20 O20       -11.2629    0.2549   60.2788 O.3     1  <0>        -0.5400
     21 C21        -9.3209   -1.1427   60.5630 C.2     1  <0>         0.5000
     22 N22        -9.3030   -0.7077   61.8385 N.am    1  <0>        -0.8500
     23 O23        -8.4536   -1.8916   60.1655 O.2     1  <0>        -0.5200
     24 C24        -9.8204   -0.0967   58.3458 C.3     1  <0>         0.0600
     25 H25       -10.7741    2.9810   53.5940 H       1  <0>         0.0700
     26 H26       -10.8481    1.5842   52.4932 H       1  <0>         0.0600
     27 H27       -11.4521    1.4360   54.1610 H       1  <0>         0.0700
     28 H28        -6.6643    1.7271   54.4910 H       1  <0>         0.1400
     29 H29        -4.9527    2.7660   53.0581 H       1  <0>         0.1300
     30 H30        -7.9315    3.6250   50.1261 H       1  <0>         0.1400
     31 H31        -9.6405    2.5800   51.5576 H       1  <0>         0.1300
     32 H32        -7.4280   -0.6986   53.0165 H       1  <0>         0.0600
     33 H33        -8.8961   -1.6083   52.5858 H       1  <0>         0.0800
     34 H34        -8.6106    0.0033   51.8865 H       1  <0>         0.0800
     35 H35       -10.1056    0.8631   56.1680 H       1  <0>         0.1100
     36 H36       -11.5490   -0.1066   55.7878 H       1  <0>         0.0700
     37 H37       -12.3627   -0.8961   57.5791 H       1  <0>         0.0400
     38 H38       -11.7171   -2.5011   57.1054 H       1  <0>         0.1200
     39 H39       -12.1790   -1.9885   59.7193 H       1  <0>         0.0900
     40 H40       -10.6681   -2.8349   59.2500 H       1  <0>         0.0900
     41 H41       -11.9350    0.6417   59.7012 H       1  <0>         0.3800
     42 H42        -8.5959   -0.9925   62.4383 H       1  <0>         0.4000
     43 H43        -9.9974   -0.1097   62.1568 H       1  <0>         0.4100
     44 H44        -8.7321   -0.0985   58.4066 H       1  <0>         0.1100
     45 H45       -10.1855    0.9210   58.2076 H       1  <0>         0.0700
@<TRIPOS>BOND
     1     1     2    1
     2     1    25    1
     3     1    26    1
     4     1    27    1
     5     2     3    1
     6     2     4    1
     7     2    11    1
     8     4    10   ar
     9     4     5   ar
    10     5     6   ar
    11     5    28    1
    12     6     7   ar
    13     6    29    1
    14     7     8    1
    15     7     9   ar
    16     9    10   ar
    17     9    30    1
    18    10    31    1
    19    11    12    1
    20    11    13   am
    21    12    32    1
    22    12    33    1
    23    12    34    1
    24    13    14    2
    25    13    15    1
    26    15    16    1
    27    15    35    1
    28    15    36    1
    29    16    24    1
    30    16    17    1
    31    17    18    1
    32    17    37    1
    33    17    38    1
    34    18    19    1
    35    18    39    1
    36    18    40    1
    37    19    20    1
    38    19    21    1
    39    19    24    1
    40    20    41    1
    41    21    22   am
    42    21    23    2
    43    22    42    1
    44    22    43    1
    45    24    44    1
    46    24    45    1
@<TRIPOS>SUBSTRUCTURE
     1 <0>         1 TEMP              0 ****  ****    0 ROOT


##########                                Name:    ZINC000676204775
##########                DOCK_Rotatable_Bonds:                   4
##########                         Heavy_Atoms:                  25
##########                    Molecular_Weight:             359.452
##########                DOCK_Rotatable_Bonds:                   4
##########                       Formal_Charge:          0.00999978
##########                     HBond_Acceptors:                   8
##########                        HBond_Donors:                   2
##########                         Heavy_Atoms:                  25
##########                          Grid_Score:          -27.281952
##########                     Grid_vdw_energy:          -25.997120
##########                      Grid_es_energy:           -1.284833
##########           Internal_energy_repulsive:            5.450625

@<TRIPOS>MOLECULE
ZINC000676204775
 46 49 1 0 0
SMALL
USER_CHARGES


@<TRIPOS>ATOM
      1 C1        -10.9988   -1.1408   60.8321 C.3     1  ZINC000676204775   -0.1600
      2 C2        -10.0539   -0.5451   59.7865 C.3     1  ZINC000676204775    0.1600
      3 C3         -8.6045   -0.7962   60.2073 C.3     1  ZINC000676204775   -0.1600
      4 N4        -10.3020   -1.1765   58.4881 N.pl3   1  ZINC000676204775   -0.3900
      5 N5        -11.0051   -2.3687   58.2866 N.2     1  ZINC000676204775   -0.2500
      6 C6        -11.0468   -2.6545   57.0166 C.2     1  ZINC000676204775    0.0900
      7 C7        -10.3334   -1.6027   56.2994 C.ar    1  ZINC000676204775   -0.2100
      8 C8        -10.0492   -1.3663   54.9500 C.ar    1  ZINC000676204775    0.0800
      9 C9         -9.3380   -0.2568   54.5944 C.ar    1  ZINC000676204775   -0.7200
     10 S10        -8.9798    0.0426   52.8954 S.o2    1  ZINC000676204775    2.6900
     11 O11        -8.4050    1.3404   52.8291 O.2     1  ZINC000676204775   -0.9300
     12 O12        -8.3259   -1.1227   52.4118 O.2     1  ZINC000676204775   -0.9600
     13 N13       -10.4281    0.1311   52.0973 N.am    1  ZINC000676204775   -1.1100
     14 C14       -11.4105    1.1508   52.4734 C.3     1  ZINC000676204775    0.2400
     15 H15       -11.1214    1.6087   53.4194 H       1  ZINC000676204775    0.1000
     16 C16       -12.7962    0.5080   52.6118 C.3     1  ZINC000676204775   -0.1200
     17 C17       -13.8587    1.5984   52.7659 C.3     1  ZINC000676204775   -0.1200
     18 C18       -14.0517    2.3257   51.4293 C.3     1  ZINC000676204775   -0.0400
     19 C19       -12.6939    2.7406   50.9186 C.2     1  ZINC000676204775   -0.2300
     20 C20       -12.4011    3.6456   49.9664 C.2     1  ZINC000676204775    0.0600
     21 N21       -11.0555    3.6895   49.8436 N.pl3   1  ZINC000676204775   -0.4800
     22 N22       -10.5068    2.7752   50.7558 N.2     1  ZINC000676204775   -0.2400
     23 C23       -11.4850    2.2074   51.3979 C.2     1  ZINC000676204775    0.0500
     24 C24        -8.8942    0.6388   55.5592 C.ar    1  ZINC000676204775    0.0100
     25 C25        -9.1593    0.4296   56.8832 C.ar    1  ZINC000676204775   -0.1500
     26 C26        -9.8873   -0.6906   57.2756 C.ar    1  ZINC000676204775    0.1700
     27 H27       -12.0315   -0.9619   60.5325 H       1  ZINC000676204775    0.0600
     28 H28       -10.8239   -2.2138   60.9105 H       1  ZINC000676204775    0.0700
     29 H29       -10.8143   -0.6711   61.7983 H       1  ZINC000676204775    0.0800
     30 H30       -10.2288    0.5279   59.7082 H       1  ZINC000676204775    0.1000
     31 H31        -8.4295   -1.8693   60.2856 H       1  ZINC000676204775    0.0700
     32 H32        -7.9313   -0.3719   59.4624 H       1  ZINC000676204775    0.0600
     33 H33        -8.4199   -0.3265   61.1734 H       1  ZINC000676204775    0.0800
     34 H34       -11.5239   -3.5161   56.5735 H       1  ZINC000676204775    0.2000
     35 H35       -10.3904   -2.0579   54.1941 H       1  ZINC000676204775    0.1500
     36 H36       -10.6260   -0.4921   51.3808 H       1  ZINC000676204775    0.4200
     37 H37       -13.0112   -0.0847   51.7227 H       1  ZINC000676204775    0.0800
     38 H38       -12.8100   -0.1383   53.4894 H       1  ZINC000676204775    0.0800
     39 H39       -14.8018    1.1451   53.0713 H       1  ZINC000676204775    0.0700
     40 H40       -13.5381    2.3126   53.5243 H       1  ZINC000676204775    0.0700
     41 H41       -14.5258    1.6565   50.7115 H       1  ZINC000676204775    0.0700
     42 H42       -14.6742    3.2081   51.5773 H       1  ZINC000676204775    0.0700
     43 H43       -13.1124    4.2308   49.4027 H       1  ZINC000676204775    0.1800
     44 H44       -10.5569    4.2539   49.2323 H       1  ZINC000676204775    0.4400
     45 H45        -8.3325    1.5111   55.2591 H       1  ZINC000676204775    0.1500
     46 H46        -8.8084    1.1337   57.6232 H       1  ZINC000676204775    0.1300
@<TRIPOS>BOND
     1     1     2    1
     2     1    27    1
     3     1    28    1
     4     1    29    1
     5     2     3    1
     6     2     4    1
     7     2    30    1
     8     3    31    1
     9     3    32    1
    10     3    33    1
    11     4    26    1
    12     4     5    1
    13     5     6    2
    14     6     7    1
    15     6    34    1
    16     7    26   ar
    17     7     8   ar
    18     8     9   ar
    19     8    35    1
    20     9    10    1
    21     9    24   ar
    22    10    11    2
    23    10    12    2
    24    10    13   am
    25    13    14    1
    26    13    36    1
    27    14    15    1
    28    14    23    1
    29    14    16    1
    30    16    17    1
    31    16    37    1
    32    16    38    1
    33    17    18    1
    34    17    39    1
    35    17    40    1
    36    18    19    1
    37    18    41    1
    38    18    42    1
    39    19    23    1
    40    19    20    2
    41    20    21    1
    42    20    43    1
    43    21    22    1
    44    21    44    1
    45    22    23    2
    46    24    25   ar
    47    24    45    1
    48    25    26   ar
    49    25    46    1
@<TRIPOS>SUBSTRUCTURE
     1 ZINC000676204775        1 TEMP              0 ****  ****    0 ROOT


##########                                Name:    ZINC000013551438
##########                DOCK_Rotatable_Bonds:                   5
##########                         Heavy_Atoms:                  27
##########                    Molecular_Weight:             377.467
##########                DOCK_Rotatable_Bonds:                   5
##########                       Formal_Charge:          -0.0300005
##########                     HBond_Acceptors:                   6
##########                        HBond_Donors:                   1
##########                         Heavy_Atoms:                  27
##########                          Grid_Score:          -27.238890
##########                     Grid_vdw_energy:          -26.467779
##########                      Grid_es_energy:           -0.771111
##########           Internal_energy_repulsive:           19.242105

@<TRIPOS>MOLECULE
ZINC000013551438
 46 49 1 0 0
SMALL
USER_CHARGES


@<TRIPOS>ATOM
      1 C1        -11.2229   -0.7204   53.1345 C.3     1  <0>         0.0300
      2 O2         -9.9416   -1.0482   53.6757 O.3     1  <0>        -0.3200
      3 C3         -9.1383   -0.0105   54.0323 C.ar    1  <0>         0.1000
      4 C4         -8.1968    0.4792   53.1313 C.ar    1  <0>        -0.1800
      5 C5         -7.3756    1.5293   53.4770 C.ar    1  <0>        -0.0900
      6 C6         -7.4828    2.1108   54.7362 C.ar    1  <0>         0.0700
      7 C7         -8.4329    1.6182   55.6469 C.ar    1  <0>        -0.0400
      8 C8         -9.2632    0.5578   55.2851 C.ar    1  <0>        -0.1100
      9 C9         -8.2925    2.4340   56.8635 C.2     1  <0>        -0.1200
     10 C10        -9.0782    2.2995   58.1147 C.2     1  <0>         0.1700
     11 C11       -10.3804    2.6301   58.2000 C.2     1  <0>        -0.3000
     12 S12       -10.9154    2.3168   59.8488 S.3     1  <0>         0.2500
     13 C13        -9.3503    1.7739   60.2692 C.2     1  <0>         0.2400
     14 N14        -8.9804    1.3219   61.5289 N.am    1  <0>        -0.6200
     15 C15        -9.8535    1.3917   62.5532 C.2     1  <0>         0.5600
     16 O16       -10.9655    1.8490   62.3738 O.2     1  <0>        -0.5000
     17 C17        -9.4591    0.9122   63.8944 C.ar    1  <0>        -0.1400
     18 C18        -8.1252    0.6005   64.1632 C.ar    1  <0>        -0.0800
     19 C19        -7.7637    0.1540   65.4174 C.ar    1  <0>        -0.1300
     20 C20        -8.7199    0.0148   66.4077 C.ar    1  <0>        -0.0800
     21 C21       -10.0438    0.3215   66.1479 C.ar    1  <0>        -0.1300
     22 C22       -10.4179    0.7746   64.8997 C.ar    1  <0>        -0.0500
     23 N23        -8.5598    1.8376   59.2455 N.2     1  <0>        -0.5000
     24 C24        -7.3071    3.3307   56.6207 C.2     1  <0>         0.1300
     25 C25        -6.8228    4.3722   57.5963 C.3     1  <0>        -0.0900
     26 N26        -6.8172    3.1478   55.3567 N.pl3   1  <0>        -0.4800
     27 C27        -5.7420    3.9372   54.7508 C.3     1  <0>         0.0800
     28 H28       -11.0940   -0.1258   52.2301 H       1  <0>         0.0500
     29 H29       -11.7606   -1.6374   52.8928 H       1  <0>         0.1000
     30 H30       -11.7915   -0.1483   53.8676 H       1  <0>         0.0500
     31 H31        -8.1092    0.0310   52.1525 H       1  <0>         0.1300
     32 H32        -6.6483    1.9013   52.7705 H       1  <0>         0.1200
     33 H33        -9.9940    0.1776   55.9834 H       1  <0>         0.1300
     34 H34       -10.9903    3.0192   57.3981 H       1  <0>         0.1800
     35 H35        -8.0935    0.9559   61.6717 H       1  <0>         0.4200
     36 H36        -7.3779    0.7084   63.3910 H       1  <0>         0.1300
     37 H37        -6.7322   -0.0879   65.6267 H       1  <0>         0.1300
     38 H38        -8.4316   -0.3352   67.3880 H       1  <0>         0.1300
     39 H39       -10.7854    0.2104   66.9252 H       1  <0>         0.1300
     40 H40       -11.4515    1.0140   64.6982 H       1  <0>         0.1400
     41 H41        -5.9543    3.9910   58.1334 H       1  <0>         0.0800
     42 H42        -6.5467    5.2769   57.0546 H       1  <0>         0.0700
     43 H43        -7.6171    4.6021   58.3064 H       1  <0>         0.0800
     44 H44        -4.7817    3.4684   54.9655 H       1  <0>         0.0700
     45 H45        -5.8899    3.9849   53.6719 H       1  <0>         0.0800
     46 H46        -5.7545    4.9457   55.1641 H       1  <0>         0.0800
@<TRIPOS>BOND
     1     1     2    1
     2     1    28    1
     3     1    29    1
     4     1    30    1
     5     2     3    1
     6     3     8   ar
     7     3     4   ar
     8     4     5   ar
     9     4    31    1
    10     5     6   ar
    11     5    32    1
    12     6    26    1
    13     6     7   ar
    14     7     8   ar
    15     7     9    1
    16     8    33    1
    17     9    10    1
    18     9    24    2
    19    10    23    1
    20    10    11    2
    21    11    12    1
    22    11    34    1
    23    12    13    1
    24    13    14    1
    25    13    23    2
    26    14    15   am
    27    14    35    1
    28    15    16    2
    29    15    17    1
    30    17    22   ar
    31    17    18   ar
    32    18    19   ar
    33    18    36    1
    34    19    20   ar
    35    19    37    1
    36    20    21   ar
    37    20    38    1
    38    21    22   ar
    39    21    39    1
    40    22    40    1
    41    24    25    1
    42    24    26    1
    43    25    41    1
    44    25    42    1
    45    25    43    1
    46    26    27    1
    47    27    44    1
    48    27    45    1
    49    27    46    1
@<TRIPOS>SUBSTRUCTURE
     1 <0>         1 TEMP              0 ****  ****    0 ROOT


##########                                Name:    ZINC000535362552
##########                DOCK_Rotatable_Bonds:                   5
##########                         Heavy_Atoms:                  26
##########                    Molecular_Weight:             416.228
##########                DOCK_Rotatable_Bonds:                   5
##########                       Formal_Charge:         -0.00999981
##########                     HBond_Acceptors:                   6
##########                        HBond_Donors:                   1
##########                         Heavy_Atoms:                  26
##########                          Grid_Score:          -27.234522
##########                     Grid_vdw_energy:          -24.594812
##########                      Grid_es_energy:           -2.639709
##########           Internal_energy_repulsive:            3.485441

@<TRIPOS>MOLECULE
ZINC000535362552
 40 43 1 0 0
SMALL
USER_CHARGES


@<TRIPOS>ATOM
      1 C1         -7.4728    5.6785   48.8161 C.3     1  ZINC000535362552    0.0300
      2 O2         -6.2594    5.2635   49.4969 O.3     1  ZINC000535362552   -0.3400
      3 C3         -6.1980    5.4819   50.8263 C.2     1  ZINC000535362552    0.5500
      4 O4         -7.1331    6.0060   51.4001 O.2     1  ZINC000535362552   -0.4800
      5 C5         -5.0021    5.0869   51.5806 C.2     1  ZINC000535362552   -0.0100
      6 C6         -3.9046    4.4874   51.0487 C.2     1  ZINC000535362552   -0.0900
      7 C7         -2.9760    4.2835   52.1597 C.ar    1  ZINC000535362552   -0.1300
      8 C8         -1.6994    3.7276   52.2697 C.ar    1  ZINC000535362552   -0.0600
      9 C9         -1.0780    3.6866   53.5038 C.ar    1  ZINC000535362552    0.1200
     10 N10         0.2028    3.1313   53.6233 N.am    1  ZINC000535362552   -0.6700
     11 C11         1.2817    3.8335   53.2240 C.2     1  ZINC000535362552    0.5200
     12 O12         1.1439    4.9462   52.7614 O.2     1  ZINC000535362552   -0.5000
     13 C13         2.6592    3.2362   53.3526 C.3     1  ZINC000535362552   -0.1000
     14 H14         3.4066    3.8829   52.8928 H       1  ZINC000535362552    0.1300
     15 C15         3.0053    2.9583   54.8346 C.3     1  ZINC000535362552    0.0600
     16 O16         3.7567    1.7347   54.7620 O.3     1  ZINC000535362552   -0.2900
     17 C17         3.3590    1.0283   53.6682 C.ar    1  ZINC000535362552    0.1300
     18 C18         3.5181   -0.3228   53.3715 C.ar    1  ZINC000535362552   -0.1300
     19 C19         3.0381   -0.8349   52.1837 C.ar    1  ZINC000535362552   -0.0500
     20 C20         2.3953   -0.0116   51.2769 C.ar    1  ZINC000535362552   -0.1200
     21 Br21        1.7446   -0.7187   49.6483 Br      1  ZINC000535362552   -0.0400
     22 C22         2.2297    1.3323   51.5665 C.ar    1  ZINC000535362552   -0.0100
     23 C23         2.7044    1.8441   52.7528 C.ar    1  ZINC000535362552   -0.1600
     24 C24        -1.7225    4.1968   54.6296 C.ar    1  ZINC000535362552   -0.0900
     25 C25        -2.9814    4.7461   54.5301 C.ar    1  ZINC000535362552   -0.0900
     26 C26        -3.6239    4.7978   53.2986 C.ar    1  ZINC000535362552    0.0700
     27 O27        -4.8242    5.2697   52.9057 O.3     1  ZINC000535362552   -0.1700
     28 H28        -7.6117    6.7522   48.9431 H       1  ZINC000535362552    0.0700
     29 H29        -7.3913    5.4460   47.7543 H       1  ZINC000535362552    0.1100
     30 H30        -8.3263    5.1491   49.2395 H       1  ZINC000535362552    0.0700
     31 H31        -3.7499    4.2158   50.0149 H       1  ZINC000535362552    0.1800
     32 H32        -1.2013    3.3324   51.3967 H       1  ZINC000535362552    0.1400
     33 H33         0.3130    2.2414   53.9934 H       1  ZINC000535362552    0.4100
     34 H34         3.6155    3.7623   55.2460 H       1  ZINC000535362552    0.1200
     35 H35         2.0985    2.8202   55.4235 H       1  ZINC000535362552    0.0900
     36 H36         4.0189   -0.9725   54.0741 H       1  ZINC000535362552    0.1400
     37 H37         3.1652   -1.8840   51.9606 H       1  ZINC000535362552    0.1400
     38 H38         1.7286    1.9791   50.8616 H       1  ZINC000535362552    0.1400
     39 H39        -1.2295    4.1605   55.5899 H       1  ZINC000535362552    0.1500
     40 H40        -3.4701    5.1373   55.4101 H       1  ZINC000535362552    0.1500
@<TRIPOS>BOND
     1     1     2    1
     2     1    28    1
     3     1    29    1
     4     1    30    1
     5     2     3    1
     6     3     4    2
     7     3     5    1
     8     5    27    1
     9     5     6    2
    10     6     7    1
    11     6    31    1
    12     7    26   ar
    13     7     8   ar
    14     8     9   ar
    15     8    32    1
    16     9    10    1
    17     9    24   ar
    18    10    11   am
    19    10    33    1
    20    11    12    2
    21    11    13    1
    22    13    14    1
    23    13    23    1
    24    13    15    1
    25    15    16    1
    26    15    34    1
    27    15    35    1
    28    16    17    1
    29    17    23   ar
    30    17    18   ar
    31    18    19   ar
    32    18    36    1
    33    19    20   ar
    34    19    37    1
    35    20    21    1
    36    20    22   ar
    37    22    23   ar
    38    22    38    1
    39    24    25   ar
    40    24    39    1
    41    25    26   ar
    42    25    40    1
    43    26    27    1
@<TRIPOS>SUBSTRUCTURE
     1 ZINC000535362552        1 TEMP              0 ****  ****    0 ROOT


##########                                Name:    ZINC000469391664
##########                DOCK_Rotatable_Bonds:                   6
##########                         Heavy_Atoms:                  29
##########                    Molecular_Weight:             408.524
##########                DOCK_Rotatable_Bonds:                   6
##########                       Formal_Charge:         -0.00999999
##########                     HBond_Acceptors:                   7
##########                        HBond_Donors:                   0
##########                         Heavy_Atoms:                  29
##########                          Grid_Score:          -27.175009
##########                     Grid_vdw_energy:          -25.417585
##########                      Grid_es_energy:           -1.757423
##########           Internal_energy_repulsive:           24.084963

@<TRIPOS>MOLECULE
ZINC000469391664
 53 56 1 0 0
SMALL
USER_CHARGES


@<TRIPOS>ATOM
      1 C1         -8.3585    3.0017   53.2101 C.3     1  ZINC000469391664   -0.1500
      2 C2         -9.1877    2.5908   54.4285 C.3     1  ZINC000469391664   -0.1000
      3 H3        -10.2466    2.7305   54.2110 H       1  ZINC000469391664    0.0800
      4 C4         -8.7948    3.4563   55.6280 C.3     1  ZINC000469391664   -0.1300
      5 C5         -9.6510    3.0655   56.8367 C.3     1  ZINC000469391664    0.1100
      6 N6         -9.5154    1.6204   57.0650 N.am    1  ZINC000469391664   -0.6100
      7 C7         -9.1541    1.1472   58.2741 C.2     1  ZINC000469391664    0.5600
      8 O8         -9.0452   -0.0510   58.4504 O.2     1  ZINC000469391664   -0.5000
      9 C9         -8.8905    2.0828   59.3835 C.ar    1  ZINC000469391664   -0.1100
     10 C10        -7.7265    2.8544   59.3905 C.ar    1  ZINC000469391664   -0.0900
     11 C11        -7.4862    3.7272   60.4298 C.ar    1  ZINC000469391664   -0.1000
     12 C12        -8.3940    3.8435   61.4699 C.ar    1  ZINC000469391664   -0.0900
     13 C13        -9.5488    3.0872   61.4773 C.ar    1  ZINC000469391664   -0.1000
     14 C14        -9.8108    2.2073   60.4357 C.ar    1  ZINC000469391664    0.1500
     15 N15       -10.9744    1.4438   60.4411 N.am    1  ZINC000469391664   -0.5800
     16 C16       -11.9765    1.6284   59.3885 C.3     1  ZINC000469391664    0.0900
     17 C17       -11.1793    0.5345   61.4147 C.2     1  ZINC000469391664    0.6100
     18 O18       -12.1968   -0.1332   61.4194 O.2     1  ZINC000469391664   -0.5200
     19 C19       -10.1769    0.3500   62.4674 C.2     1  ZINC000469391664   -0.2600
     20 C20       -10.4176    0.4143   63.8115 C.2     1  ZINC000469391664   -0.0500
     21 C21        -9.2947    0.2020   64.5754 C.2     1  ZINC000469391664   -0.1500
     22 C22        -8.1726   -0.0284   63.8836 C.2     1  ZINC000469391664   -0.2600
     23 S23        -8.4734    0.0029   62.2045 S.3     1  ZINC000469391664    0.2300
     24 C24        -9.7815    0.7011   55.9503 C.3     1  ZINC000469391664    0.1000
     25 C25        -8.9236    1.1184   54.7517 C.3     1  ZINC000469391664    0.1300
     26 H26        -7.8696    0.9821   54.9938 H       1  ZINC000469391664    0.1000
     27 N27        -9.2697    0.2932   53.5917 N.pl3   1  ZINC000469391664   -0.4500
     28 C28       -10.3781    0.4288   52.8001 C.2     1  ZINC000469391664   -0.0500
     29 C29       -10.3020   -0.5282   51.8558 C.2     1  ZINC000469391664   -0.0300
     30 N30        -9.1778   -1.2292   52.0651 N.2     1  ZINC000469391664   -0.4900
     31 C31        -8.5517   -0.7396   53.1001 C.2     1  ZINC000469391664    0.1800
     32 H32        -8.6386    2.3858   52.3555 H       1  ZINC000469391664    0.0600
     33 H33        -8.5469    4.0503   52.9794 H       1  ZINC000469391664    0.0600
     34 H34        -7.2996    2.8620   53.4273 H       1  ZINC000469391664    0.0600
     35 H35        -7.7420    3.2979   55.8615 H       1  ZINC000469391664    0.0700
     36 H36        -8.9610    4.5066   55.3887 H       1  ZINC000469391664    0.0900
     37 H37        -9.3088    3.6084   57.7177 H       1  ZINC000469391664    0.1000
     38 H38       -10.6952    3.3077   56.6385 H       1  ZINC000469391664    0.0800
     39 H39        -7.0153    2.7670   58.5825 H       1  ZINC000469391664    0.1400
     40 H40        -6.5857    4.3231   60.4336 H       1  ZINC000469391664    0.1400
     41 H41        -8.1967    4.5299   62.2800 H       1  ZINC000469391664    0.1400
     42 H42       -10.2513    3.1833   62.2919 H       1  ZINC000469391664    0.1400
     43 H43       -11.8113    0.8972   58.5973 H       1  ZINC000469391664    0.0600
     44 H44       -12.9733    1.4911   59.8078 H       1  ZINC000469391664    0.0900
     45 H45       -11.8906    2.6342   58.9775 H       1  ZINC000469391664    0.0700
     46 H46       -11.3927    0.6127   64.2313 H       1  ZINC000469391664    0.1500
     47 H47        -9.3165    0.2201   65.6551 H       1  ZINC000469391664    0.1400
     48 H48        -7.2062   -0.2137   64.3290 H       1  ZINC000469391664    0.1600
     49 H49        -9.5254   -0.3161   56.2465 H       1  ZINC000469391664    0.1000
     50 H50       -10.8363    0.7504   55.6798 H       1  ZINC000469391664    0.0800
     51 H51       -11.1631    1.1622   52.9118 H       1  ZINC000469391664    0.1700
     52 H52       -11.0204   -0.7011   51.0681 H       1  ZINC000469391664    0.1700
     53 H53        -7.6176   -1.1042   53.5013 H       1  ZINC000469391664    0.2000
@<TRIPOS>BOND
     1     1     2    1
     2     1    32    1
     3     1    33    1
     4     1    34    1
     5     2     3    1
     6     2    25    1
     7     2     4    1
     8     4     5    1
     9     4    35    1
    10     4    36    1
    11     5     6    1
    12     5    37    1
    13     5    38    1
    14     6     7   am
    15     6    24    1
    16     7     8    2
    17     7     9    1
    18     9    14   ar
    19     9    10   ar
    20    10    11   ar
    21    10    39    1
    22    11    12   ar
    23    11    40    1
    24    12    13   ar
    25    12    41    1
    26    13    14   ar
    27    13    42    1
    28    14    15    1
    29    15    16    1
    30    15    17   am
    31    16    43    1
    32    16    44    1
    33    16    45    1
    34    17    18    2
    35    17    19    1
    36    19    23    1
    37    19    20    2
    38    20    21    1
    39    20    46    1
    40    21    22    2
    41    21    47    1
    42    22    23    1
    43    22    48    1
    44    24    25    1
    45    24    49    1
    46    24    50    1
    47    25    26    1
    48    25    27    1
    49    27    31    1
    50    27    28    1
    51    28    29    2
    52    28    51    1
    53    29    30    1
    54    29    52    1
    55    30    31    2
    56    31    53    1
@<TRIPOS>SUBSTRUCTURE
     1 ZINC000469391664        1 TEMP              0 ****  ****    0 ROOT


##########                                Name:    ZINC000504860563
##########                DOCK_Rotatable_Bonds:                   6
##########                         Heavy_Atoms:                  25
##########                    Molecular_Weight:             370.786
##########                DOCK_Rotatable_Bonds:                   6
##########                       Formal_Charge:                0.01
##########                     HBond_Acceptors:                   9
##########                        HBond_Donors:                   0
##########                         Heavy_Atoms:                  25
##########                          Grid_Score:          -27.171680
##########                     Grid_vdw_energy:          -26.535728
##########                      Grid_es_energy:           -0.635951
##########           Internal_energy_repulsive:            9.479126

@<TRIPOS>MOLECULE
ZINC000504860563
 42 44 1 0 0
SMALL
USER_CHARGES


@<TRIPOS>ATOM
      1 O1        -10.9636   -2.9468   57.1405 O.2     1  ZINC000504860563   -0.5100
      2 C2        -10.7536   -1.8130   57.5251 C.2     1  ZINC000504860563    0.5700
      3 C3        -10.4670   -1.5579   58.9528 C.ar    1  ZINC000504860563    0.0500
      4 N4         -9.2087   -1.5194   59.3766 N.ar    1  ZINC000504860563   -0.4100
      5 C5         -8.9112   -1.2951   60.6367 C.ar    1  ZINC000504860563    0.0600
      6 C6         -9.9058   -1.0882   61.5813 C.ar    1  ZINC000504860563   -0.1000
      7 C7        -11.2324   -1.1186   61.1899 C.ar    1  ZINC000504860563   -0.1700
      8 C8        -11.5229   -1.3528   59.8477 C.ar    1  ZINC000504860563    0.1400
      9 O9        -12.8087   -1.3911   59.4172 O.3     1  ZINC000504860563   -0.2600
     10 C10       -13.6343   -2.4375   59.9322 C.3     1  ZINC000504860563   -0.0100
     11 C11       -14.4357   -3.0642   58.7893 C.3     1  ZINC000504860563    0.2800
     12 F12       -15.3073   -4.0293   59.3054 F       1  ZINC000504860563   -0.1900
     13 F13       -15.1737   -2.0703   58.1376 F       1  ZINC000504860563   -0.1900
     14 N14       -10.7764   -0.7891   56.6489 N.am    1  ZINC000504860563   -0.6000
     15 C15       -10.5126    0.5852   57.0965 C.3     1  ZINC000504860563    0.0800
     16 C16        -9.3934    1.1782   56.2348 C.3     1  ZINC000504860563   -0.1500
     17 C17        -9.7759    1.0607   54.7576 C.3     1  ZINC000504860563    0.1600
     18 N18        -8.7227    1.6567   53.9319 N.pl3   1  ZINC000504860563   -0.3600
     19 C19        -8.7361    1.7690   52.5862 C.2     1  ZINC000504860563    0.0700
     20 C20        -7.5849    2.3746   52.2115 C.2     1  ZINC000504860563   -0.1900
     21 Cl21       -7.1125    2.7539   50.5847 Cl      1  ZINC000504860563   -0.0400
     22 C22        -6.8431    2.6415   53.3677 C.2     1  ZINC000504860563    0.0600
     23 N23        -7.5265    2.2163   54.3993 N.2     1  ZINC000504860563   -0.2800
     24 C24        -9.9404   -0.4151   54.3872 C.3     1  ZINC000504860563   -0.1400
     25 C25       -11.0596   -1.0268   55.2270 C.3     1  ZINC000504860563    0.1200
     26 H26        -7.8755   -1.2718   60.9420 H       1  ZINC000504860563    0.1700
     27 H27        -9.6468   -0.9054   62.6137 H       1  ZINC000504860563    0.1500
     28 H28       -12.0241   -0.9604   61.9073 H       1  ZINC000504860563    0.1500
     29 H29       -13.0080   -3.1991   60.3969 H       1  ZINC000504860563    0.1000
     30 H30       -14.3194   -2.0280   60.6745 H       1  ZINC000504860563    0.1000
     31 H31       -13.7527   -3.5330   58.0811 H       1  ZINC000504860563    0.1300
     32 H32       -11.4158    1.1852   56.9860 H       1  ZINC000504860563    0.0700
     33 H33       -10.2032    0.5761   58.1416 H       1  ZINC000504860563    0.1600
     34 H34        -9.2537    2.2281   56.4920 H       1  ZINC000504860563    0.0900
     35 H35        -8.4673    0.6325   56.4152 H       1  ZINC000504860563    0.0700
     36 H36       -10.7151    1.5856   54.5828 H       1  ZINC000504860563    0.1100
     37 H37        -9.5237    1.4348   51.9271 H       1  ZINC000504860563    0.1800
     38 H38        -5.8751    3.1192   53.4027 H       1  ZINC000504860563    0.1900
     39 H39       -10.1898   -0.4990   53.3295 H       1  ZINC000504860563    0.0900
     40 H40        -9.0091   -0.9458   54.5852 H       1  ZINC000504860563    0.0800
     41 H41       -11.1139   -2.0990   55.0381 H       1  ZINC000504860563    0.1000
     42 H42       -12.0093   -0.5593   54.9664 H       1  ZINC000504860563    0.0800
@<TRIPOS>BOND
     1     1     2    2
     2     2     3    1
     3     2    14   am
     4     3     8   ar
     5     3     4   ar
     6     4     5   ar
     7     5     6   ar
     8     5    26    1
     9     6     7   ar
    10     6    27    1
    11     7     8   ar
    12     7    28    1
    13     8     9    1
    14     9    10    1
    15    10    11    1
    16    10    29    1
    17    10    30    1
    18    11    12    1
    19    11    13    1
    20    11    31    1
    21    14    25    1
    22    14    15    1
    23    15    16    1
    24    15    32    1
    25    15    33    1
    26    16    17    1
    27    16    34    1
    28    16    35    1
    29    17    18    1
    30    17    24    1
    31    17    36    1
    32    18    23    1
    33    18    19    1
    34    19    20    2
    35    19    37    1
    36    20    21    1
    37    20    22    1
    38    22    23    2
    39    22    38    1
    40    24    25    1
    41    24    39    1
    42    24    40    1
    43    25    41    1
    44    25    42    1
@<TRIPOS>SUBSTRUCTURE
     1 ZINC000504860563        1 TEMP              0 ****  ****    0 ROOT


##########                                Name:    ZINC000866034032
##########                DOCK_Rotatable_Bonds:                   4
##########                         Heavy_Atoms:                  23
##########                    Molecular_Weight:             383.242
##########                DOCK_Rotatable_Bonds:                   4
##########                       Formal_Charge:           0.0199999
##########                     HBond_Acceptors:                   6
##########                        HBond_Donors:                   1
##########                         Heavy_Atoms:                  23
##########                          Grid_Score:          -27.171425
##########                     Grid_vdw_energy:          -25.862425
##########                      Grid_es_energy:           -1.309000
##########           Internal_energy_repulsive:           12.648849

@<TRIPOS>MOLECULE
ZINC000866034032
 42 44 1 0 0
SMALL
USER_CHARGES


@<TRIPOS>ATOM
      1 C1        -11.7637    3.4573   62.4528 C.3     1  ZINC000866034032   -0.1300
      2 C2        -11.3156    2.0100   62.6667 C.3     1  ZINC000866034032   -0.0800
      3 C3        -12.3905    0.9931   62.2776 C.3     1  ZINC000866034032   -0.1300
      4 C4         -9.9328    1.7016   62.0720 C.3     1  ZINC000866034032    0.1400
      5 H5         -9.6538    2.3642   61.2527 H       1  ZINC000866034032    0.1100
      6 N6         -9.7377    0.2861   61.7488 N.am    1  ZINC000866034032   -0.7000
      7 C7         -9.8853   -0.1418   60.4793 C.2     1  ZINC000866034032    0.5100
      8 O8        -10.1811    0.6447   59.6048 O.2     1  ZINC000866034032   -0.5300
      9 C9         -9.6828   -1.5975   60.1464 C.3     1  ZINC000866034032   -0.1100
     10 C10       -10.8527   -2.0953   59.3372 C.ar    1  ZINC000866034032   -0.0500
     11 C11       -10.7194   -2.2845   57.9745 C.ar    1  ZINC000866034032   -0.0500
     12 C12       -11.7923   -2.7407   57.2317 C.ar    1  ZINC000866034032   -0.0900
     13 C13       -12.9990   -3.0082   57.8523 C.ar    1  ZINC000866034032   -0.0500
     14 Br14      -14.4668   -3.6328   56.8368 Br      1  ZINC000866034032    0.0200
     15 C15       -13.1317   -2.8191   59.2163 C.ar    1  ZINC000866034032   -0.0200
     16 N16       -14.4226   -3.1056   59.8811 N.pl3   1  ZINC000866034032    0.0200
     17 O17       -14.5393   -2.9391   61.0821 O.2     1  ZINC000866034032   -0.1600
     18 O18       -15.3683   -3.5080   59.2273 O.2     1  ZINC000866034032   -0.1300
     19 C19       -12.0570   -2.3680   59.9589 C.ar    1  ZINC000866034032   -0.0300
     20 C20        -9.3312    2.1124   63.4258 C.3     1  ZINC000866034032   -0.1500
     21 H21        -8.9999    3.1470   63.5145 H       1  ZINC000866034032    0.1200
     22 C22        -8.3589    1.0557   63.9959 C.3     1  ZINC000866034032   -0.1400
     23 C23        -9.2469    0.1768   64.9038 C.3     1  ZINC000866034032    0.0500
     24 O24       -10.5835    0.3402   64.3822 O.3     1  ZINC000866034032   -0.3600
     25 C25       -10.7037    1.7559   64.0522 C.3     1  ZINC000866034032    0.0600
     26 H26       -11.0536    2.3891   64.8675 H       1  ZINC000866034032    0.1000
     27 H27       -11.0259    4.1337   62.8844 H       1  ZINC000866034032    0.0600
     28 H28       -11.8569    3.6547   61.3850 H       1  ZINC000866034032    0.0700
     29 H29       -12.7276    3.6144   62.9368 H       1  ZINC000866034032    0.0700
     30 H30       -12.5160    0.9935   61.1949 H       1  ZINC000866034032    0.0600
     31 H31       -12.0873   -0.0004   62.6079 H       1  ZINC000866034032    0.0600
     32 H32       -13.3339    1.2619   62.7529 H       1  ZINC000866034032    0.0600
     33 H33        -9.5022   -0.3432   62.4484 H       1  ZINC000866034032    0.4100
     34 H34        -8.7657   -1.7141   59.5688 H       1  ZINC000866034032    0.1100
     35 H35        -9.6071   -2.1740   61.0684 H       1  ZINC000866034032    0.1200
     36 H36        -9.7771   -2.0755   57.4899 H       1  ZINC000866034032    0.1500
     37 H37       -11.6884   -2.8878   56.1668 H       1  ZINC000866034032    0.1600
     38 H38       -12.1604   -2.2207   61.0239 H       1  ZINC000866034032    0.1600
     39 H39        -7.9280    0.4600   63.1912 H       1  ZINC000866034032    0.0800
     40 H40        -7.5731    1.5356   64.5796 H       1  ZINC000866034032    0.0800
     41 H41        -8.9396   -0.8670   64.8396 H       1  ZINC000866034032    0.0900
     42 H42        -9.1970    0.5252   65.9354 H       1  ZINC000866034032    0.0600
@<TRIPOS>BOND
     1     1     2    1
     2     1    27    1
     3     1    28    1
     4     1    29    1
     5     2    25    1
     6     2     3    1
     7     2     4    1
     8     3    30    1
     9     3    31    1
    10     3    32    1
    11     4     5    1
    12     4     6    1
    13     4    20    1
    14     6     7   am
    15     6    33    1
    16     7     8    2
    17     7     9    1
    18     9    10    1
    19     9    34    1
    20     9    35    1
    21    10    19   ar
    22    10    11   ar
    23    11    12   ar
    24    11    36    1
    25    12    13   ar
    26    12    37    1
    27    13    14    1
    28    13    15   ar
    29    15    16    1
    30    15    19   ar
    31    16    17    2
    32    16    18    2
    33    19    38    1
    34    20    21    1
    35    20    25    1
    36    20    22    1
    37    22    23    1
    38    22    39    1
    39    22    40    1
    40    23    24    1
    41    23    41    1
    42    23    42    1
    43    24    25    1
    44    25    26    1
@<TRIPOS>SUBSTRUCTURE
     1 ZINC000866034032        1 TEMP              0 ****  ****    0 ROOT


##########                                Name:    ZINC000540473851
##########                DOCK_Rotatable_Bonds:                   5
##########                         Heavy_Atoms:                  29
##########                    Molecular_Weight:             411.503
##########                DOCK_Rotatable_Bonds:                   5
##########                       Formal_Charge:           0.0200001
##########                     HBond_Acceptors:                   8
##########                        HBond_Donors:                   0
##########                         Heavy_Atoms:                  29
##########                          Grid_Score:          -27.146286
##########                     Grid_vdw_energy:          -27.071978
##########                      Grid_es_energy:           -0.074309
##########           Internal_energy_repulsive:           26.128914

@<TRIPOS>MOLECULE
ZINC000540473851
 51 54 1 0 0
SMALL
USER_CHARGES


@<TRIPOS>ATOM
      1 C1         -8.9595   -1.0528   52.3324 C.3     1  ZINC000540473851   -0.0800
      2 C2         -9.1928    0.4358   52.3077 C.2     1  ZINC000540473851    0.1500
      3 C3        -10.2959    1.0271   52.8640 C.2     1  ZINC000540473851   -0.3100
      4 C4        -11.3939    0.3369   53.5516 C.2     1  ZINC000540473851    0.6000
      5 O5        -12.2831   -0.1855   52.9059 O.2     1  ZINC000540473851   -0.5100
      6 N6        -11.4171    0.2818   54.8980 N.am    1  ZINC000540473851   -0.6100
      7 C7        -12.5045   -0.4096   55.6067 C.3     1  ZINC000540473851    0.1000
      8 C8        -11.8861   -1.3892   56.6098 C.3     1  ZINC000540473851    0.0400
      9 N9        -10.9411   -0.6691   57.4737 N.3     1  ZINC000540473851   -0.5300
     10 C10       -10.4556   -1.5329   58.5581 C.3     1  ZINC000540473851    0.1200
     11 H11        -9.6014   -2.1117   58.2067 H       1  ZINC000540473851    0.0500
     12 C12       -11.5729   -2.4843   58.9912 C.3     1  ZINC000540473851   -0.1400
     13 C13       -10.0382   -0.6820   59.7297 C.ar    1  ZINC000540473851   -0.0500
     14 C14        -9.0243   -1.1082   60.5666 C.ar    1  ZINC000540473851   -0.1000
     15 C15        -8.6402   -0.3286   61.6420 C.ar    1  ZINC000540473851   -0.0900
     16 C16        -9.2699    0.8779   61.8812 C.ar    1  ZINC000540473851   -0.1500
     17 C17       -10.2857    1.3062   61.0430 C.ar    1  ZINC000540473851    0.1000
     18 F18       -10.9019    2.4857   61.2758 F       1  ZINC000540473851   -0.1400
     19 C19       -10.6657    0.5273   59.9635 C.ar    1  ZINC000540473851   -0.1500
     20 C20        -9.8216   -0.1197   56.6971 C.3     1  ZINC000540473851    0.0400
     21 C21       -10.3522    0.9066   55.6974 C.3     1  ZINC000540473851    0.1200
     22 S22       -10.1602    2.7650   52.6066 S.3     1  ZINC000540473851    0.2800
     23 C23        -8.6720    2.5407   51.7963 C.2     1  ZINC000540473851    0.0800
     24 C24        -7.8513    3.6303   51.2234 C.ar    1  ZINC000540473851    0.3800
     25 N25        -6.7919    3.3239   50.4854 N.ar    1  ZINC000540473851   -0.5100
     26 C26        -6.0381    4.2730   49.9593 C.ar    1  ZINC000540473851    0.1600
     27 C27        -6.3661    5.6020   50.1866 C.ar    1  ZINC000540473851   -0.2100
     28 C28        -7.4804    5.8871   50.9626 C.ar    1  ZINC000540473851    0.1500
     29 N29        -8.1951    4.8908   51.4550 N.ar    1  ZINC000540473851   -0.4700
     30 N30        -8.3586    1.2769   51.7591 N.2     1  ZINC000540473851   -0.4300
     31 H31        -8.4072   -1.3192   53.2336 H       1  ZINC000540473851    0.0900
     32 H32        -9.9184   -1.5710   52.3275 H       1  ZINC000540473851    0.0800
     33 H33        -8.3841   -1.3450   51.4539 H       1  ZINC000540473851    0.0800
     34 H34       -13.1176    0.3191   56.1370 H       1  ZINC000540473851    0.0900
     35 H35       -13.1180   -0.9570   54.8912 H       1  ZINC000540473851    0.0900
     36 H36       -12.6740   -1.8300   57.2208 H       1  ZINC000540473851    0.1000
     37 H37       -11.3592   -2.1769   56.0715 H       1  ZINC000540473851    0.0400
     38 H38       -12.4271   -1.9056   59.3425 H       1  ZINC000540473851    0.0700
     39 H39       -11.8747   -3.0999   58.1437 H       1  ZINC000540473851    0.0600
     40 H40       -11.2126   -3.1254   59.7958 H       1  ZINC000540473851    0.0600
     41 H41        -8.5317   -2.0514   60.3807 H       1  ZINC000540473851    0.1400
     42 H42        -7.8480   -0.6629   62.2956 H       1  ZINC000540473851    0.1300
     43 H43        -8.9702    1.4864   62.7216 H       1  ZINC000540473851    0.1300
     44 H44       -11.4574    0.8604   59.3090 H       1  ZINC000540473851    0.1300
     45 H45        -9.1122    0.3603   57.3712 H       1  ZINC000540473851    0.1000
     46 H46        -9.3234   -0.9251   56.1575 H       1  ZINC000540473851    0.0400
     47 H47        -9.5437    1.2320   55.0427 H       1  ZINC000540473851    0.1000
     48 H48       -10.7600    1.7634   56.2337 H       1  ZINC000540473851    0.0800
     49 H49        -5.1768    4.0176   49.3598 H       1  ZINC000540473851    0.1800
     50 H50        -5.7668    6.3973   49.7686 H       1  ZINC000540473851    0.1600
     51 H51        -7.7626    6.9110   51.1584 H       1  ZINC000540473851    0.1800
@<TRIPOS>BOND
     1     1     2    1
     2     1    31    1
     3     1    32    1
     4     1    33    1
     5     2    30    1
     6     2     3    2
     7     3     4    1
     8     3    22    1
     9     4     5    2
    10     4     6   am
    11     6    21    1
    12     6     7    1
    13     7     8    1
    14     7    34    1
    15     7    35    1
    16     8     9    1
    17     8    36    1
    18     8    37    1
    19     9    10    1
    20     9    20    1
    21    10    11    1
    22    10    12    1
    23    10    13    1
    24    12    38    1
    25    12    39    1
    26    12    40    1
    27    13    19   ar
    28    13    14   ar
    29    14    15   ar
    30    14    41    1
    31    15    16   ar
    32    15    42    1
    33    16    17   ar
    34    16    43    1
    35    17    18    1
    36    17    19   ar
    37    19    44    1
    38    20    21    1
    39    20    45    1
    40    20    46    1
    41    21    47    1
    42    21    48    1
    43    22    23    1
    44    23    24    1
    45    23    30    2
    46    24    29   ar
    47    24    25   ar
    48    25    26   ar
    49    26    27   ar
    50    26    49    1
    51    27    28   ar
    52    27    50    1
    53    28    29   ar
    54    28    51    1
@<TRIPOS>SUBSTRUCTURE
     1 ZINC000540473851        1 TEMP              0 ****  ****    0 ROOT


##########                                Name:    ZINC000506156755
##########                DOCK_Rotatable_Bonds:                   7
##########                         Heavy_Atoms:                  30
##########                    Molecular_Weight:             400.434
##########                DOCK_Rotatable_Bonds:                   7
##########                       Formal_Charge:          -0.0200001
##########                     HBond_Acceptors:                   6
##########                        HBond_Donors:                   1
##########                         Heavy_Atoms:                  30
##########                          Grid_Score:          -27.136600
##########                     Grid_vdw_energy:          -25.860062
##########                      Grid_es_energy:           -1.276540
##########           Internal_energy_repulsive:           14.039515

@<TRIPOS>MOLECULE
ZINC000506156755
 50 53 1 0 0
SMALL
USER_CHARGES


@<TRIPOS>ATOM
      1 C1        -11.2020    1.2637   56.3590 C.3     1  ZINC000506156755   -0.1600
      2 C2        -10.0464    0.2771   56.1805 C.3     1  ZINC000506156755    0.1900
      3 H3        -10.4063   -0.6154   55.6686 H       1  ZINC000506156755    0.1000
      4 N4         -9.5142   -0.0945   57.4939 N.am    1  ZINC000506156755   -0.7200
      5 C5         -9.9677   -1.2004   58.1165 C.2     1  ZINC000506156755    0.5000
      6 O6        -10.8176   -1.8871   57.5902 O.2     1  ZINC000506156755   -0.5200
      7 C7         -9.4190   -1.5836   59.4667 C.3     1  ZINC000506156755    0.0900
      8 N8         -9.7297   -0.5308   60.4368 N.am    1  ZINC000506156755   -0.5600
      9 C9         -9.0096    0.5944   60.5957 C.2     1  ZINC000506156755    0.5800
     10 O10        -8.0142    0.8937   59.9675 O.2     1  ZINC000506156755   -0.4600
     11 C11        -9.6330    1.4059   61.6624 C.ar    1  ZINC000506156755   -0.1400
     12 C12        -9.3403    2.6286   62.2439 C.ar    1  ZINC000506156755   -0.0400
     13 C13       -10.1526    3.1215   63.2538 C.ar    1  ZINC000506156755   -0.0900
     14 C14       -11.2510    2.4016   63.6834 C.ar    1  ZINC000506156755   -0.0900
     15 C15       -11.5562    1.1763   63.1106 C.ar    1  ZINC000506156755   -0.0400
     16 C16       -10.7536    0.6713   62.1008 C.ar    1  ZINC000506156755   -0.1400
     17 C17       -10.7759   -0.5592   61.2820 C.2     1  ZINC000506156755    0.5800
     18 O18       -11.5998   -1.4480   61.3604 O.2     1  ZINC000506156755   -0.4600
     19 C19        -8.9578    0.9214   55.3613 C.ar    1  ZINC000506156755   -0.1200
     20 C20        -8.0701    1.7958   55.9571 C.ar    1  ZINC000506156755   -0.0800
     21 C21        -7.0707    2.3871   55.2061 C.ar    1  ZINC000506156755   -0.1400
     22 C22        -6.9572    2.1046   53.8575 C.ar    1  ZINC000506156755   -0.0800
     23 C23        -7.8425    1.2306   53.2566 C.ar    1  ZINC000506156755   -0.1900
     24 C24        -8.8428    0.6320   54.0089 C.ar    1  ZINC000506156755    0.1300
     25 O25        -9.7145   -0.2283   53.4205 O.3     1  ZINC000506156755   -0.2500
     26 C26       -10.7956    0.2945   52.7845 C.ar    1  ZINC000506156755    0.0800
     27 C27       -10.7236    1.5579   52.2156 C.ar    1  ZINC000506156755   -0.1400
     28 C28       -11.8240    2.0871   51.5697 C.ar    1  ZINC000506156755   -0.1000
     29 C29       -12.9967    1.3588   51.4900 C.ar    1  ZINC000506156755   -0.1200
     30 C30       -13.0712    0.0996   52.0561 C.ar    1  ZINC000506156755   -0.1000
     31 C31       -11.9719   -0.4366   52.6981 C.ar    1  ZINC000506156755   -0.1200
     32 H32       -11.9893    0.7977   56.9516 H       1  ZINC000506156755    0.0700
     33 H33       -10.8420    2.1561   56.8709 H       1  ZINC000506156755    0.0600
     34 H34       -11.5980    1.5401   55.3819 H       1  ZINC000506156755    0.0700
     35 H35        -8.8352    0.4554   57.9154 H       1  ZINC000506156755    0.4000
     36 H36        -9.8717   -2.5209   59.7902 H       1  ZINC000506156755    0.1300
     37 H37        -8.3382   -1.7069   59.3980 H       1  ZINC000506156755    0.1300
     38 H38        -8.4829    3.1954   61.9124 H       1  ZINC000506156755    0.1400
     39 H39        -9.9250    4.0746   63.7080 H       1  ZINC000506156755    0.1400
     40 H40       -11.8760    2.7958   64.4710 H       1  ZINC000506156755    0.1400
     41 H41       -12.4162    0.6181   63.4501 H       1  ZINC000506156755    0.1400
     42 H42        -8.1568    2.0185   57.0104 H       1  ZINC000506156755    0.1300
     43 H43        -6.3779    3.0709   55.6738 H       1  ZINC000506156755    0.1300
     44 H44        -6.1759    2.5679   53.2731 H       1  ZINC000506156755    0.1300
     45 H45        -7.7536    1.0105   52.2031 H       1  ZINC000506156755    0.1300
     46 H46        -9.8080    2.1273   52.2778 H       1  ZINC000506156755    0.1300
     47 H47       -11.7686    3.0706   51.1270 H       1  ZINC000506156755    0.1300
     48 H48       -13.8561    1.7745   50.9849 H       1  ZINC000506156755    0.1300
     49 H49       -13.9883   -0.4673   51.9924 H       1  ZINC000506156755    0.1300
     50 H50       -12.0304   -1.4203   53.1399 H       1  ZINC000506156755    0.1300
@<TRIPOS>BOND
     1     1     2    1
     2     1    32    1
     3     1    33    1
     4     1    34    1
     5     2     3    1
     6     2     4    1
     7     2    19    1
     8     4     5   am
     9     4    35    1
    10     5     6    2
    11     5     7    1
    12     7     8    1
    13     7    36    1
    14     7    37    1
    15     8    17   am
    16     8     9   am
    17     9    10    2
    18     9    11    1
    19    11    16   ar
    20    11    12   ar
    21    12    13   ar
    22    12    38    1
    23    13    14   ar
    24    13    39    1
    25    14    15   ar
    26    14    40    1
    27    15    16   ar
    28    15    41    1
    29    16    17    1
    30    17    18    2
    31    19    24   ar
    32    19    20   ar
    33    20    21   ar
    34    20    42    1
    35    21    22   ar
    36    21    43    1
    37    22    23   ar
    38    22    44    1
    39    23    24   ar
    40    23    45    1
    41    24    25    1
    42    25    26    1
    43    26    31   ar
    44    26    27   ar
    45    27    28   ar
    46    27    46    1
    47    28    29   ar
    48    28    47    1
    49    29    30   ar
    50    29    48    1
    51    30    31   ar
    52    30    49    1
    53    31    50    1
@<TRIPOS>SUBSTRUCTURE
     1 ZINC000506156755        1 TEMP              0 ****  ****    0 ROOT


##########                                Name:    ZINC000186316242
##########                DOCK_Rotatable_Bonds:                   7
##########                         Heavy_Atoms:                  28
##########                    Molecular_Weight:             392.525
##########                DOCK_Rotatable_Bonds:                   7
##########                       Formal_Charge:         -0.00999981
##########                     HBond_Acceptors:                   6
##########                        HBond_Donors:                   0
##########                         Heavy_Atoms:                  28
##########                          Grid_Score:          -27.134201
##########                     Grid_vdw_energy:          -27.396738
##########                      Grid_es_energy:            0.262538
##########           Internal_energy_repulsive:           18.591372

@<TRIPOS>MOLECULE
ZINC000186316242
 52 55 1 0 0
SMALL
USER_CHARGES


@<TRIPOS>ATOM
      1 C1        -10.2868    4.8983   60.6436 C.3     1  ZINC000186316242   -0.1500
      2 C2         -9.3292    3.7519   60.9749 C.3     1  ZINC000186316242    0.1000
      3 N3         -8.3453    3.6110   59.8987 N.am    1  ZINC000186316242   -0.5900
      4 C4         -7.4321    4.5798   59.6895 C.2     1  ZINC000186316242    0.5900
      5 O5         -7.4248    5.5711   60.3941 O.2     1  ZINC000186316242   -0.5000
      6 C6         -6.4425    4.4381   58.6070 C.2     1  ZINC000186316242    0.0100
      7 C7         -6.7304    4.7308   57.3072 C.2     1  ZINC000186316242   -0.2100
      8 S8         -5.3415    4.4440   56.3515 S.3     1  ZINC000186316242    0.2000
      9 C9         -4.4412    3.9398   57.7769 C.2     1  ZINC000186316242    0.0700
     10 C10        -3.0301    3.4964   57.7821 C.ar    1  ZINC000186316242    0.1900
     11 C11        -2.2598    3.6263   56.6269 C.ar    1  ZINC000186316242   -0.1500
     12 C12        -0.9407    3.2072   56.6477 C.ar    1  ZINC000186316242   -0.0700
     13 C13        -0.4342    2.6718   57.8232 C.ar    1  ZINC000186316242   -0.1600
     14 C14        -1.2545    2.5722   58.9328 C.ar    1  ZINC000186316242    0.1100
     15 N15        -2.5049    2.9828   58.8886 N.ar    1  ZINC000186316242   -0.4500
     16 N16        -5.2039    4.0219   58.8236 N.2     1  ZINC000186316242   -0.3900
     17 C17        -8.3541    2.4169   59.0499 C.3     1  ZINC000186316242    0.1400
     18 H18        -7.4845    2.4144   58.3927 H       1  ZINC000186316242    0.1000
     19 C19        -9.6556    2.3598   58.2177 C.3     1  ZINC000186316242   -0.1300
     20 C20       -10.0138    0.8525   58.2379 C.3     1  ZINC000186316242    0.0400
     21 N21        -9.6337    0.4311   59.6104 N.3     1  ZINC000186316242   -0.4900
     22 C22        -9.4446   -1.0239   59.6810 C.3     1  ZINC000186316242    0.0800
     23 C23       -10.7728   -1.7125   59.4995 C.ar    1  ZINC000186316242   -0.0700
     24 C24       -11.6035   -1.9094   60.5866 C.ar    1  ZINC000186316242   -0.1000
     25 C25       -12.8218   -2.5410   60.4201 C.ar    1  ZINC000186316242   -0.1200
     26 C26       -13.2096   -2.9752   59.1663 C.ar    1  ZINC000186316242   -0.1200
     27 C27       -12.3792   -2.7775   58.0790 C.ar    1  ZINC000186316242   -0.1200
     28 C28       -11.1627   -2.1421   58.2447 C.ar    1  ZINC000186316242   -0.1100
     29 C29        -8.3723    1.1446   59.9172 C.3     1  ZINC000186316242    0.0400
     30 H30       -11.0189    5.0031   61.4443 H       1  ZINC000186316242    0.0700
     31 H31        -9.7226    5.8255   60.5434 H       1  ZINC000186316242    0.0500
     32 H32       -10.8011    4.6829   59.7070 H       1  ZINC000186316242    0.0400
     33 H33        -8.8149    3.9673   61.9114 H       1  ZINC000186316242    0.1200
     34 H34        -9.8934    2.8246   61.0751 H       1  ZINC000186316242    0.0700
     35 H35        -7.6819    5.0863   56.9402 H       1  ZINC000186316242    0.1900
     36 H36        -2.6866    4.0474   55.7287 H       1  ZINC000186316242    0.1400
     37 H37        -0.3198    3.2948   55.7684 H       1  ZINC000186316242    0.1400
     38 H38         0.5910    2.3354   57.8714 H       1  ZINC000186316242    0.1400
     39 H39        -0.8629    2.1554   59.8490 H       1  ZINC000186316242    0.1600
     40 H40       -10.4416    2.9494   58.6899 H       1  ZINC000186316242    0.0900
     41 H41        -9.4767    2.7002   57.1978 H       1  ZINC000186316242    0.0700
     42 H42       -11.0817    0.7086   58.0731 H       1  ZINC000186316242    0.0800
     43 H43        -9.4320    0.3089   57.4935 H       1  ZINC000186316242    0.0400
     44 H44        -8.7607   -1.3401   58.8934 H       1  ZINC000186316242    0.0400
     45 H45        -9.0275   -1.2895   60.6525 H       1  ZINC000186316242    0.0800
     46 H46       -11.3006   -1.5701   61.5662 H       1  ZINC000186316242    0.1200
     47 H47       -13.4706   -2.6954   61.2696 H       1  ZINC000186316242    0.1200
     48 H48       -14.1611   -3.4693   59.0362 H       1  ZINC000186316242    0.1200
     49 H49       -12.6820   -3.1170   57.0994 H       1  ZINC000186316242    0.1200
     50 H50       -10.5140   -1.9876   57.3953 H       1  ZINC000186316242    0.1200
     51 H51        -7.5190    0.5127   59.6712 H       1  ZINC000186316242    0.0500
     52 H52        -8.3458    1.4147   60.9728 H       1  ZINC000186316242    0.0800
@<TRIPOS>BOND
     1     1     2    1
     2     1    30    1
     3     1    31    1
     4     1    32    1
     5     2     3    1
     6     2    33    1
     7     2    34    1
     8     3     4   am
     9     3    17    1
    10     4     5    2
    11     4     6    1
    12     6    16    1
    13     6     7    2
    14     7     8    1
    15     7    35    1
    16     8     9    1
    17     9    10    1
    18     9    16    2
    19    10    15   ar
    20    10    11   ar
    21    11    12   ar
    22    11    36    1
    23    12    13   ar
    24    12    37    1
    25    13    14   ar
    26    13    38    1
    27    14    15   ar
    28    14    39    1
    29    17    18    1
    30    17    29    1
    31    17    19    1
    32    19    20    1
    33    19    40    1
    34    19    41    1
    35    20    21    1
    36    20    42    1
    37    20    43    1
    38    21    22    1
    39    21    29    1
    40    22    23    1
    41    22    44    1
    42    22    45    1
    43    23    28   ar
    44    23    24   ar
    45    24    25   ar
    46    24    46    1
    47    25    26   ar
    48    25    47    1
    49    26    27   ar
    50    26    48    1
    51    27    28   ar
    52    27    49    1
    53    28    50    1
    54    29    51    1
    55    29    52    1
@<TRIPOS>SUBSTRUCTURE
     1 ZINC000186316242        1 TEMP              0 ****  ****    0 ROOT


##########                                Name:    ZINC000004313955
##########                DOCK_Rotatable_Bonds:                   6
##########                         Heavy_Atoms:                  26
##########                    Molecular_Weight:             414.358
##########                DOCK_Rotatable_Bonds:                   6
##########                       Formal_Charge:           0.0299997
##########                     HBond_Acceptors:                   9
##########                        HBond_Donors:                   2
##########                         Heavy_Atoms:                  26
##########                          Grid_Score:          -27.126789
##########                     Grid_vdw_energy:          -25.950542
##########                      Grid_es_energy:           -1.176247
##########           Internal_energy_repulsive:           12.132349

@<TRIPOS>MOLECULE
ZINC000004313955
 47 49 1 0 0
SMALL
USER_CHARGES


@<TRIPOS>ATOM
      1 C1        -10.7059    4.4688   51.7784 C.3     1  ZINC000004313955   -0.1500
      2 C2         -9.4604    3.8105   52.3756 C.3     1  ZINC000004313955   -0.1100
      3 H3         -9.1920    4.3148   53.3038 H       1  ZINC000004313955    0.0800
      4 C4         -8.3007    3.9167   51.3826 C.3     1  ZINC000004313955   -0.1100
      5 C5         -7.0458    3.2876   51.9922 C.3     1  ZINC000004313955   -0.1100
      6 H6         -6.2144    3.3845   51.2939 H       1  ZINC000004313955    0.0900
      7 C7         -6.7001    4.0023   53.3001 C.3     1  ZINC000004313955   -0.1500
      8 C8         -7.3077    1.8046   52.2728 C.3     1  ZINC000004313955    0.1200
      9 N9         -8.5094    1.6868   53.1101 N.am    1  ZINC000004313955   -0.6000
     10 C10        -8.4743    0.9991   54.2687 C.2     1  ZINC000004313955    0.5400
     11 O11        -7.4445    0.4690   54.6283 O.2     1  ZINC000004313955   -0.5300
     12 C12        -9.7148    0.8888   55.1172 C.3     1  ZINC000004313955   -0.1400
     13 S13        -9.9873    2.4492   55.9931 S.3     1  ZINC000004313955    0.0800
     14 C14        -9.1158    2.1170   57.4881 C.2     1  ZINC000004313955    0.1100
     15 N15        -7.8109    2.0593   57.6334 N.2     1  ZINC000004313955   -0.2800
     16 N16        -7.5142    1.7967   58.8559 N.2     1  ZINC000004313955   -0.2400
     17 C17        -8.6110    1.6708   59.5662 C.2     1  ZINC000004313955    0.2500
     18 C18        -8.6921    1.3694   61.0112 C.ar    1  ZINC000004313955   -0.0100
     19 C19        -8.6643    2.4056   61.9456 C.ar    1  ZINC000004313955   -0.0700
     20 C20        -8.7402    2.1183   63.2927 C.ar    1  ZINC000004313955   -0.1100
     21 C21        -8.8436    0.8050   63.7192 C.ar    1  ZINC000004313955   -0.0100
     22 Cl22       -8.9381    0.4524   65.4164 Cl      1  ZINC000004313955   -0.0500
     23 C23        -8.8723   -0.2282   62.7977 C.ar    1  ZINC000004313955   -0.1100
     24 C24        -8.8028    0.0466   61.4467 C.ar    1  ZINC000004313955    0.0100
     25 Cl25       -8.8387   -1.2494   60.2923 Cl      1  ZINC000004313955   -0.0100
     26 N26        -9.6704    1.8774   58.7132 N.pl3   1  ZINC000004313955   -0.3000
     27 N27       -11.0000    1.8422   59.0247 N.3     1  ZINC000004313955   -0.5800
     28 C28        -9.7500    2.3336   52.6613 C.3     1  ZINC000004313955    0.1100
     29 H29       -11.5319    4.3919   52.4854 H       1  ZINC000004313955    0.0600
     30 H30       -10.4990    5.5192   51.5742 H       1  ZINC000004313955    0.0600
     31 H31       -10.9739    3.9641   50.8502 H       1  ZINC000004313955    0.0600
     32 H32        -8.5604    3.3915   50.4634 H       1  ZINC000004313955    0.0700
     33 H33        -8.1090    4.9662   51.1591 H       1  ZINC000004313955    0.0700
     34 H34        -7.5313    3.9043   53.9984 H       1  ZINC000004313955    0.0600
     35 H35        -5.8063    3.5539   53.7339 H       1  ZINC000004313955    0.0600
     36 H36        -6.5165    5.0579   53.0998 H       1  ZINC000004313955    0.0600
     37 H37        -7.4646    1.2768   51.3322 H       1  ZINC000004313955    0.0700
     38 H38        -6.4537    1.3755   52.7970 H       1  ZINC000004313955    0.1000
     39 H39       -10.5730    0.6752   54.4800 H       1  ZINC000004313955    0.1300
     40 H40        -9.5898    0.0831   55.8406 H       1  ZINC000004313955    0.1300
     41 H41        -8.5831    3.4304   61.6147 H       1  ZINC000004313955    0.1600
     42 H42        -8.7187    2.9197   64.0165 H       1  ZINC000004313955    0.1500
     43 H43        -8.9529   -1.2504   63.1364 H       1  ZINC000004313955    0.1500
     44 H44       -11.5495    1.5468   58.2317 H       1  ZINC000004313955    0.3700
     45 H45       -11.1687    1.2484   59.8229 H       1  ZINC000004313955    0.3800
     46 H46       -10.5069    2.2530   53.4415 H       1  ZINC000004313955    0.0900
     47 H47       -10.1064    1.8493   51.7522 H       1  ZINC000004313955    0.0800
@<TRIPOS>BOND
     1     1     2    1
     2     1    29    1
     3     1    30    1
     4     1    31    1
     5     2     3    1
     6     2    28    1
     7     2     4    1
     8     4     5    1
     9     4    32    1
    10     4    33    1
    11     5     6    1
    12     5     7    1
    13     5     8    1
    14     7    34    1
    15     7    35    1
    16     7    36    1
    17     8     9    1
    18     8    37    1
    19     8    38    1
    20     9    10   am
    21     9    28    1
    22    10    11    2
    23    10    12    1
    24    12    13    1
    25    12    39    1
    26    12    40    1
    27    13    14    1
    28    14    26    1
    29    14    15    2
    30    15    16    1
    31    16    17    2
    32    17    18    1
    33    17    26    1
    34    18    24   ar
    35    18    19   ar
    36    19    20   ar
    37    19    41    1
    38    20    21   ar
    39    20    42    1
    40    21    22    1
    41    21    23   ar
    42    23    24   ar
    43    23    43    1
    44    24    25    1
    45    26    27    1
    46    27    44    1
    47    27    45    1
    48    28    46    1
    49    28    47    1
@<TRIPOS>SUBSTRUCTURE
     1 ZINC000004313955        1 TEMP              0 ****  ****    0 ROOT


##########                                Name:    ZINC000496437542
##########                DOCK_Rotatable_Bonds:                   7
##########                         Heavy_Atoms:                  24
##########                    Molecular_Weight:             338.447
##########                DOCK_Rotatable_Bonds:                   7
##########                       Formal_Charge:           0.0400002
##########                     HBond_Acceptors:                   6
##########                        HBond_Donors:                   1
##########                         Heavy_Atoms:                  24
##########                          Grid_Score:          -27.115856
##########                     Grid_vdw_energy:          -26.317839
##########                      Grid_es_energy:           -0.798018
##########           Internal_energy_repulsive:           13.149888

@<TRIPOS>MOLECULE
ZINC000496437542
 54 55 1 0 0
SMALL
USER_CHARGES


@<TRIPOS>ATOM
      1 C1         -8.8266    3.7446   51.2379 C.3     1  ZINC000496437542   -0.1800
      2 C2         -9.8637    3.4478   52.3230 C.3     1  ZINC000496437542    0.1400
      3 C3         -9.1488    3.0885   53.6271 C.3     1  ZINC000496437542   -0.1800
      4 C4        -10.7381    4.6837   52.5443 C.3     1  ZINC000496437542   -0.1400
      5 O5        -10.6964    2.3343   51.9049 O.3     1  ZINC000496437542   -0.3600
      6 C6        -11.2661    1.5980   52.8775 C.2     1  ZINC000496437542    0.6600
      7 O7        -12.1123    2.0916   53.5965 O.2     1  ZINC000496437542   -0.5600
      8 N8        -10.8979    0.3136   53.0537 N.am    1  ZINC000496437542   -0.6000
      9 C9         -9.8755   -0.3058   52.1957 C.3     1  ZINC000496437542    0.0800
     10 C10        -8.8302   -0.9753   53.0952 C.3     1  ZINC000496437542    0.0500
     11 O11        -9.4911   -1.8409   54.0212 O.3     1  ZINC000496437542   -0.3700
     12 C12       -10.3811   -1.1700   54.9166 C.3     1  ZINC000496437542    0.0700
     13 H13        -9.8340   -0.4067   55.4699 H       1  ZINC000496437542    0.0700
     14 C14       -10.9787   -2.1817   55.8965 C.3     1  ZINC000496437542    0.1300
     15 N15       -10.9207   -1.6380   57.2556 N.am    1  ZINC000496437542   -0.7200
     16 C16       -10.8149   -2.4703   58.3105 C.2     1  ZINC000496437542    0.5600
     17 O17       -10.7662   -3.6726   58.1339 O.2     1  ZINC000496437542   -0.5400
     18 C18       -10.7585   -1.9245   59.6753 C.2     1  ZINC000496437542   -0.1900
     19 C19        -9.6135   -1.4990   60.1637 C.2     1  ZINC000496437542   -0.0600
     20 C20        -9.5439   -0.9358   61.5674 C.3     1  ZINC000496437542   -0.1000
     21 C21       -10.2286    0.4328   61.5780 C.3     1  ZINC000496437542   -0.1100
     22 C22       -11.7245    0.2857   61.7879 C.3     1  ZINC000496437542   -0.1200
     23 C23       -12.4426   -0.3892   60.6335 C.3     1  ZINC000496437542   -0.1200
     24 C24       -12.0197   -1.8493   60.5096 C.3     1  ZINC000496437542   -0.0800
     25 C25       -11.5018   -0.5090   54.1140 C.3     1  ZINC000496437542    0.1000
     26 H26        -8.2036    2.8642   51.0802 H       1  ZINC000496437542    0.0900
     27 H27        -9.3359    4.0006   50.3089 H       1  ZINC000496437542    0.0600
     28 H28        -8.2015    4.5806   51.5518 H       1  ZINC000496437542    0.0700
     29 H29        -8.5237    3.9245   53.9410 H       1  ZINC000496437542    0.0700
     30 H30        -9.8877    2.8772   54.4002 H       1  ZINC000496437542    0.0600
     31 H31        -8.5259    2.2081   53.4694 H       1  ZINC000496437542    0.0900
     32 H32       -11.2474    4.9396   51.6152 H       1  ZINC000496437542    0.0700
     33 H33       -11.4769    4.4722   53.3173 H       1  ZINC000496437542    0.0700
     34 H34       -10.1129    5.5196   52.8582 H       1  ZINC000496437542    0.0800
     35 H35       -10.3398   -1.0538   51.5529 H       1  ZINC000496437542    0.0800
     36 H36        -9.3974    0.4589   51.5836 H       1  ZINC000496437542    0.1000
     37 H37        -8.1408   -1.5561   52.4823 H       1  ZINC000496437542    0.1100
     38 H38        -8.2774   -0.2114   53.6418 H       1  ZINC000496437542    0.0600
     39 H39       -12.0167   -2.3784   55.6279 H       1  ZINC000496437542    0.0900
     40 H40       -10.4097   -3.1104   55.8521 H       1  ZINC000496437542    0.0800
     41 H41       -10.9583   -0.6791   57.3964 H       1  ZINC000496437542    0.4000
     42 H42        -8.7189   -1.5519   59.5607 H       1  ZINC000496437542    0.1300
     43 H43       -10.0564   -1.6069   62.2568 H       1  ZINC000496437542    0.0800
     44 H44        -8.5015   -0.8260   61.8666 H       1  ZINC000496437542    0.0800
     45 H45        -9.8110    1.0364   62.3839 H       1  ZINC000496437542    0.0700
     46 H46       -10.0473    0.9319   60.6261 H       1  ZINC000496437542    0.0700
     47 H47       -11.8931   -0.2993   62.6921 H       1  ZINC000496437542    0.0600
     48 H48       -12.1545    1.2767   61.9333 H       1  ZINC000496437542    0.0600
     49 H49       -13.5184   -0.3399   60.8023 H       1  ZINC000496437542    0.0700
     50 H50       -12.2015    0.1321   59.7072 H       1  ZINC000496437542    0.0600
     51 H51       -12.8124   -2.4201   60.0258 H       1  ZINC000496437542    0.0700
     52 H52       -11.8227   -2.2586   61.5005 H       1  ZINC000496437542    0.0800
     53 H53       -12.1024    0.1198   54.7713 H       1  ZINC000496437542    0.1100
     54 H54       -12.1315   -1.2756   53.6625 H       1  ZINC000496437542    0.0900
@<TRIPOS>BOND
     1     1     2    1
     2     1    26    1
     3     1    27    1
     4     1    28    1
     5     2     3    1
     6     2     4    1
     7     2     5    1
     8     3    29    1
     9     3    30    1
    10     3    31    1
    11     4    32    1
    12     4    33    1
    13     4    34    1
    14     5     6    1
    15     6     7    2
    16     6     8   am
    17     8    25    1
    18     8     9    1
    19     9    10    1
    20     9    35    1
    21     9    36    1
    22    10    11    1
    23    10    37    1
    24    10    38    1
    25    11    12    1
    26    12    13    1
    27    12    14    1
    28    12    25    1
    29    14    15    1
    30    14    39    1
    31    14    40    1
    32    15    16   am
    33    15    41    1
    34    16    17    2
    35    16    18    1
    36    18    24    1
    37    18    19    2
    38    19    20    1
    39    19    42    1
    40    20    21    1
    41    20    43    1
    42    20    44    1
    43    21    22    1
    44    21    45    1
    45    21    46    1
    46    22    23    1
    47    22    47    1
    48    22    48    1
    49    23    24    1
    50    23    49    1
    51    23    50    1
    52    24    51    1
    53    24    52    1
    54    25    53    1
    55    25    54    1
@<TRIPOS>SUBSTRUCTURE
     1 ZINC000496437542        1 TEMP              0 ****  ****    0 ROOT


##########                                Name:    ZINC000053543817
##########                DOCK_Rotatable_Bonds:                   7
##########                         Heavy_Atoms:                  25
##########                    Molecular_Weight:             350.458
##########                DOCK_Rotatable_Bonds:                   7
##########                       Formal_Charge:           0.0199998
##########                     HBond_Acceptors:                   6
##########                        HBond_Donors:                   2
##########                         Heavy_Atoms:                  25
##########                          Grid_Score:          -27.114767
##########                     Grid_vdw_energy:          -27.614496
##########                      Grid_es_energy:            0.499729
##########           Internal_energy_repulsive:           35.433456

@<TRIPOS>MOLECULE
ZINC000053543817
 55 56 1 0 0
SMALL
USER_CHARGES


@<TRIPOS>ATOM
      1 C1        -14.3561    1.4505   62.2301 C.3     1  ZINC000053543817   -0.0700
      2 C2        -12.9679    1.2894   62.7940 C.2     1  ZINC000053543817   -0.0200
      3 C3        -11.8175    1.4239   62.1049 C.2     1  ZINC000053543817   -0.1800
      4 C4        -10.7723    1.1900   63.0166 C.2     1  ZINC000053543817   -0.1900
      5 C5        -11.3385    0.9265   64.2122 C.2     1  ZINC000053543817    0.0000
      6 C6        -10.5551    0.6209   65.4655 C.3     1  ZINC000053543817   -0.0300
      7 C7         -9.1043    1.0685   65.2516 C.3     1  ZINC000053543817   -0.0500
      8 C8         -9.0423    2.5968   65.2158 C.3     1  ZINC000053543817   -0.1500
      9 C9         -8.2363    0.5499   66.4000 C.3     1  ZINC000053543817   -0.1400
     10 C10        -8.5848    0.5057   63.9257 C.3     1  ZINC000053543817   -0.1200
     11 C11        -9.2880    1.2144   62.7608 C.3     1  ZINC000053543817    0.2200
     12 H12        -8.9430    2.2463   62.6969 H       1  ZINC000053543817    0.1000
     13 N13        -8.9913    0.5165   61.5073 N.am    1  ZINC000053543817   -0.7100
     14 C14        -8.6741    1.2206   60.4027 C.2     1  ZINC000053543817    0.5100
     15 O15        -8.6358    2.4320   60.4461 O.2     1  ZINC000053543817   -0.5300
     16 C16        -8.3672    0.5025   59.1138 C.3     1  ZINC000053543817    0.1400
     17 H17        -7.5261   -0.1737   59.2660 H       1  ZINC000053543817    0.1200
     18 C18        -8.0106    1.5248   58.0329 C.3     1  ZINC000053543817   -0.1600
     19 N19        -9.5411   -0.2655   58.6913 N.am    1  ZINC000053543817   -0.7000
     20 C20       -10.7491    0.3290   58.6300 C.2     1  ZINC000053543817    0.6600
     21 O21       -10.8648    1.5017   58.9266 O.2     1  ZINC000053543817   -0.5700
     22 O22       -11.8275   -0.3764   58.2402 O.3     1  ZINC000053543817   -0.3600
     23 C23       -12.0438   -1.6597   58.8841 C.3     1  ZINC000053543817    0.1400
     24 C24       -11.6981   -1.5492   60.3704 C.3     1  ZINC000053543817   -0.1800
     25 C25       -13.5106   -2.0666   58.7305 C.3     1  ZINC000053543817   -0.1400
     26 C26       -11.1504   -2.7156   58.2299 C.3     1  ZINC000053543817   -0.1800
     27 O27       -12.6678    0.9928   64.0713 O.3     1  ZINC000053543817   -0.1700
     28 H28       -15.0900    1.2888   63.0196 H       1  ZINC000053543817    0.0800
     29 H29       -14.4706    2.4573   61.8284 H       1  ZINC000053543817    0.0800
     30 H30       -14.5119    0.7219   61.4344 H       1  ZINC000053543817    0.0800
     31 H31       -11.7177    1.6641   61.0567 H       1  ZINC000053543817    0.1400
     32 H32       -10.9854    1.1628   66.3078 H       1  ZINC000053543817    0.0900
     33 H33       -10.5828   -0.4508   65.6627 H       1  ZINC000053543817    0.0900
     34 H34        -9.4108    2.9975   66.1601 H       1  ZINC000053543817    0.0600
     35 H35        -8.0110    2.9152   65.0638 H       1  ZINC000053543817    0.0600
     36 H36        -9.6610    2.9664   64.3982 H       1  ZINC000053543817    0.0600
     37 H37        -8.2807   -0.5389   66.4260 H       1  ZINC000053543817    0.0600
     38 H38        -7.2049    0.8679   66.2481 H       1  ZINC000053543817    0.0600
     39 H39        -8.6051    0.9512   67.3440 H       1  ZINC000053543817    0.0600
     40 H40        -7.5098    0.6719   63.8565 H       1  ZINC000053543817    0.0800
     41 H41        -8.7913   -0.5635   63.8789 H       1  ZINC000053543817    0.0700
     42 H42        -9.0231   -0.4524   61.4724 H       1  ZINC000053543817    0.4000
     43 H43        -7.1373    2.0964   58.3472 H       1  ZINC000053543817    0.0800
     44 H44        -7.7887    1.0055   57.1006 H       1  ZINC000053543817    0.0800
     45 H45        -8.8519    2.2011   57.8807 H       1  ZINC000053543817    0.0700
     46 H46        -9.4489   -1.2019   58.4557 H       1  ZINC000053543817    0.4200
     47 H47       -12.3346   -0.7970   60.8365 H       1  ZINC000053543817    0.0600
     48 H48       -11.8604   -2.5126   60.8539 H       1  ZINC000053543817    0.0700
     49 H49       -10.6530   -1.2592   60.4799 H       1  ZINC000053543817    0.0900
     50 H50       -13.7568   -2.1455   57.6716 H       1  ZINC000053543817    0.0700
     51 H51       -13.6729   -3.0300   59.2140 H       1  ZINC000053543817    0.0800
     52 H52       -14.1471   -1.3145   59.1966 H       1  ZINC000053543817    0.0700
     53 H53       -10.1054   -2.4256   58.3393 H       1  ZINC000053543817    0.0900
     54 H54       -11.3127   -3.6789   58.7133 H       1  ZINC000053543817    0.0700
     55 H55       -11.3966   -2.7943   57.1711 H       1  ZINC000053543817    0.0600
@<TRIPOS>BOND
     1     1     2    1
     2     1    28    1
     3     1    29    1
     4     1    30    1
     5     2    27    1
     6     2     3    2
     7     3     4    1
     8     3    31    1
     9     4    11    1
    10     4     5    2
    11     5     6    1
    12     5    27    1
    13     6     7    1
    14     6    32    1
    15     6    33    1
    16     7     8    1
    17     7     9    1
    18     7    10    1
    19     8    34    1
    20     8    35    1
    21     8    36    1
    22     9    37    1
    23     9    38    1
    24     9    39    1
    25    10    11    1
    26    10    40    1
    27    10    41    1
    28    11    12    1
    29    11    13    1
    30    13    14   am
    31    13    42    1
    32    14    15    2
    33    14    16    1
    34    16    17    1
    35    16    18    1
    36    16    19    1
    37    18    43    1
    38    18    44    1
    39    18    45    1
    40    19    20   am
    41    19    46    1
    42    20    21    2
    43    20    22    1
    44    22    23    1
    45    23    24    1
    46    23    25    1
    47    23    26    1
    48    24    47    1
    49    24    48    1
    50    24    49    1
    51    25    50    1
    52    25    51    1
    53    25    52    1
    54    26    53    1
    55    26    54    1
    56    26    55    1
@<TRIPOS>SUBSTRUCTURE
     1 ZINC000053543817        1 TEMP              0 ****  ****    0 ROOT


##########                                Name:    ZINC000504638019
##########                DOCK_Rotatable_Bonds:                   8
##########                         Heavy_Atoms:                  24
##########                    Molecular_Weight:             328.454
##########                DOCK_Rotatable_Bonds:                   8
##########                       Formal_Charge:        -1.49012e-08
##########                     HBond_Acceptors:                   4
##########                        HBond_Donors:                   1
##########                         Heavy_Atoms:                  24
##########                          Grid_Score:          -27.112923
##########                     Grid_vdw_energy:          -27.846642
##########                      Grid_es_energy:            0.733719
##########           Internal_energy_repulsive:           11.470136

@<TRIPOS>MOLECULE
ZINC000504638019
 52 53 1 0 0
SMALL
USER_CHARGES


@<TRIPOS>ATOM
      1 C1         -9.0989    1.3120   66.5485 C.3     1  ZINC000504638019   -0.1200
      2 C2         -9.0057    0.9699   65.0837 C.ar    1  ZINC000504638019   -0.0900
      3 C3         -7.9711    0.1771   64.6236 C.ar    1  ZINC000504638019   -0.1200
      4 C4         -7.8856   -0.1367   63.2801 C.ar    1  ZINC000504638019   -0.1100
      5 C5         -8.8351    0.3421   62.3967 C.ar    1  ZINC000504638019   -0.0900
      6 C6         -8.7417    0.0004   60.9320 C.3     1  ZINC000504638019   -0.0600
      7 H7         -7.7362   -0.3537   60.7049 H       1  ZINC000504638019    0.0900
      8 C8         -9.7559   -1.0956   60.5983 C.3     1  ZINC000504638019   -0.1500
      9 C9         -9.0443    1.2464   60.0974 C.3     1  ZINC000504638019    0.1300
     10 N10        -8.3366    1.1607   58.8175 N.am    1  ZINC000504638019   -0.7000
     11 C11        -8.7114    1.9434   57.7863 C.2     1  ZINC000504638019    0.5100
     12 O12        -9.6344    2.7201   57.9184 O.2     1  ZINC000504638019   -0.5100
     13 C13        -7.9906    1.8546   56.4802 C.2     1  ZINC000504638019    0.5100
     14 O14        -6.9550    2.4655   56.3159 O.2     1  ZINC000504638019   -0.5200
     15 N15        -8.4906    1.0960   55.4847 N.am    1  ZINC000504638019   -0.5800
     16 C16        -9.7407    0.3583   55.6830 C.3     1  ZINC000504638019    0.0600
     17 C17        -7.7839    1.0090   54.2044 C.3     1  ZINC000504638019    0.1100
     18 C18        -8.1370    2.2234   53.3435 C.3     1  ZINC000504638019   -0.1000
     19 H19        -7.8880    3.1384   53.8810 H       1  ZINC000504638019    0.0800
     20 C20        -9.6326    2.2075   53.0202 C.3     1  ZINC000504638019   -0.0800
     21 C21        -9.9452    3.2318   51.9689 C.2     1  ZINC000504638019   -0.1500
     22 C22        -9.0569    3.7790   51.2027 C.2     1  ZINC000504638019   -0.1600
     23 C23        -7.5891    3.4730   51.2653 C.3     1  ZINC000504638019   -0.0900
     24 C24        -7.3510    2.1686   52.0273 C.3     1  ZINC000504638019   -0.1100
     25 C25        -9.8706    1.1338   62.8571 C.ar    1  ZINC000504638019   -0.1100
     26 C26        -9.9581    1.4444   64.2013 C.ar    1  ZINC000504638019   -0.1200
     27 H27        -9.6890    0.5531   67.0620 H       1  ZINC000504638019    0.0700
     28 H28        -8.0976    1.3459   66.9781 H       1  ZINC000504638019    0.0700
     29 H29        -9.5772    2.2845   66.6648 H       1  ZINC000504638019    0.0700
     30 H30        -7.2293   -0.1969   65.3137 H       1  ZINC000504638019    0.1200
     31 H31        -7.0769   -0.7555   62.9204 H       1  ZINC000504638019    0.1200
     32 H32        -9.6884   -1.3427   59.5388 H       1  ZINC000504638019    0.0600
     33 H33        -9.5404   -1.9833   61.1929 H       1  ZINC000504638019    0.0600
     34 H34       -10.7614   -0.7415   60.8254 H       1  ZINC000504638019    0.0600
     35 H35       -10.1171    1.3104   59.9156 H       1  ZINC000504638019    0.0800
     36 H36        -8.7136    2.1341   60.6367 H       1  ZINC000504638019    0.0800
     37 H37        -7.5980    0.5407   58.7123 H       1  ZINC000504638019    0.4100
     38 H38       -10.5865    1.0170   55.4860 H       1  ZINC000504638019    0.0600
     39 H39        -9.7742   -0.4903   54.9997 H       1  ZINC000504638019    0.0700
     40 H40        -9.7916   -0.0007   56.7110 H       1  ZINC000504638019    0.1100
     41 H41        -6.7089    0.9906   54.3832 H       1  ZINC000504638019    0.0900
     42 H42        -8.0817    0.0974   53.6863 H       1  ZINC000504638019    0.0900
     43 H43        -9.9131    1.2190   52.6562 H       1  ZINC000504638019    0.0800
     44 H44       -10.1999    2.4321   53.9234 H       1  ZINC000504638019    0.0600
     45 H45       -10.9754    3.5309   51.8437 H       1  ZINC000504638019    0.1000
     46 H46        -9.3931    4.5004   50.4726 H       1  ZINC000504638019    0.1000
     47 H47        -7.1963    3.3779   50.2529 H       1  ZINC000504638019    0.0700
     48 H48        -7.0722    4.2851   51.7764 H       1  ZINC000504638019    0.0700
     49 H49        -6.2870    2.0544   52.2346 H       1  ZINC000504638019    0.0700
     50 H50        -7.7038    1.3266   51.4317 H       1  ZINC000504638019    0.0700
     51 H51       -10.6126    1.5075   62.1671 H       1  ZINC000504638019    0.1200
     52 H52       -10.7671    2.0629   64.5610 H       1  ZINC000504638019    0.1200
@<TRIPOS>BOND
     1     1     2    1
     2     1    27    1
     3     1    28    1
     4     1    29    1
     5     2    26   ar
     6     2     3   ar
     7     3     4   ar
     8     3    30    1
     9     4     5   ar
    10     4    31    1
    11     5     6    1
    12     5    25   ar
    13     6     7    1
    14     6     8    1
    15     6     9    1
    16     8    32    1
    17     8    33    1
    18     8    34    1
    19     9    10    1
    20     9    35    1
    21     9    36    1
    22    10    11   am
    23    10    37    1
    24    11    12    2
    25    11    13    1
    26    13    14    2
    27    13    15   am
    28    15    16    1
    29    15    17    1
    30    16    38    1
    31    16    39    1
    32    16    40    1
    33    17    18    1
    34    17    41    1
    35    17    42    1
    36    18    19    1
    37    18    24    1
    38    18    20    1
    39    20    21    1
    40    20    43    1
    41    20    44    1
    42    21    22    2
    43    21    45    1
    44    22    23    1
    45    22    46    1
    46    23    24    1
    47    23    47    1
    48    23    48    1
    49    24    49    1
    50    24    50    1
    51    25    26   ar
    52    25    51    1
    53    26    52    1
@<TRIPOS>SUBSTRUCTURE
     1 ZINC000504638019        1 TEMP              0 ****  ****    0 ROOT


##########                                Name:    ZINC000338927927
##########                DOCK_Rotatable_Bonds:                   9
##########                         Heavy_Atoms:                  23
##########                    Molecular_Weight:             336.286
##########                DOCK_Rotatable_Bonds:                   9
##########                       Formal_Charge:         -0.00999999
##########                     HBond_Acceptors:                   9
##########                        HBond_Donors:                   2
##########                         Heavy_Atoms:                  23
##########                          Grid_Score:          -27.110300
##########                     Grid_vdw_energy:          -25.894020
##########                      Grid_es_energy:           -1.216280
##########           Internal_energy_repulsive:            8.585123

@<TRIPOS>MOLECULE
ZINC000338927927
 39 39 1 0 0
SMALL
USER_CHARGES


@<TRIPOS>ATOM
      1 C1         -8.9549    0.9439   63.9237 C.3     1  <0>        -0.1600
      2 C2         -9.0976    1.3493   62.4554 C.3     1  <0>        -0.1100
      3 C3         -8.9710    0.1087   61.5691 C.3     1  <0>        -0.1000
      4 H4         -8.3242   -0.6212   62.0560 H       1  <0>         0.1400
      5 C5         -8.3769    0.4990   60.2403 C.2     1  <0>         0.5200
      6 O6         -7.7160   -0.3014   59.6129 O.2     1  <0>        -0.4700
      7 N7         -8.5799    1.7376   59.7491 N.am    1  <0>        -0.6700
      8 C8         -8.0283    2.1000   58.5154 C.ar    1  <0>         0.2200
      9 C9         -6.9169    2.9313   58.4686 C.ar    1  <0>        -0.2300
     10 C10        -6.3707    3.2902   57.2484 C.ar    1  <0>         0.1700
     11 F11        -5.2895    4.0990   57.2052 F       1  <0>        -0.1300
     12 C12        -6.9302    2.8214   56.0731 C.ar    1  <0>        -0.2500
     13 C13        -8.0422    1.9895   56.1154 C.ar    1  <0>         0.2600
     14 N14        -8.6070    1.5168   54.9287 N.pl3   1  <0>        -0.7400
     15 C15        -7.8181    0.6737   54.0269 C.3     1  <0>         0.0800
     16 C16        -8.7466   -0.2946   53.2915 C.3     1  <0>         0.4500
     17 F17        -9.6984    0.4312   52.5672 F       1  <0>        -0.1800
     18 F18        -7.9961   -1.0848   52.4141 F       1  <0>        -0.1700
     19 F19        -9.3945   -1.1159   54.2205 F       1  <0>        -0.1800
     20 C20        -8.5881    1.6243   57.3380 C.ar    1  <0>        -0.2000
     21 C21       -10.3347   -0.4947   61.3518 C.2     1  <0>         0.4600
     22 O22       -11.2410   -0.2264   62.1045 O.2     1  <0>        -0.4600
     23 O23       -10.5426   -1.3303   60.3221 O.3     1  <0>        -0.3500
     24 C24       -11.8836   -1.8651   60.1674 C.3     1  <0>         0.0300
     25 H25        -7.9795    0.4835   64.0805 H       1  <0>         0.0600
     26 H26        -9.0452    1.8279   64.5551 H       1  <0>         0.0600
     27 H27        -9.7387    0.2316   64.1818 H       1  <0>         0.0800
     28 H28       -10.0730    1.8099   62.2987 H       1  <0>         0.0800
     29 H29        -8.3139    2.0616   62.1974 H       1  <0>         0.0800
     30 H30        -9.1085    2.3776   60.2509 H       1  <0>         0.4200
     31 H31        -6.4787    3.2983   59.3848 H       1  <0>         0.1400
     32 H32        -6.5025    3.1027   55.1221 H       1  <0>         0.1400
     33 H33        -9.5215    1.7467   54.7016 H       1  <0>         0.4100
     34 H34        -7.3005    1.3020   53.3021 H       1  <0>         0.1100
     35 H35        -7.0873    0.1081   54.6049 H       1  <0>         0.1100
     36 H36        -9.4524    0.9777   57.3728 H       1  <0>         0.1500
     37 H37       -11.9141   -2.5241   59.2997 H       1  <0>         0.1000
     38 H38       -12.1558   -2.4275   61.0606 H       1  <0>         0.0600
     39 H39       -12.5877   -1.0451   60.0258 H       1  <0>         0.0600
@<TRIPOS>BOND
     1     1     2    1
     2     1    25    1
     3     1    26    1
     4     1    27    1
     5     2     3    1
     6     2    28    1
     7     2    29    1
     8     3     4    1
     9     3     5    1
    10     3    21    1
    11     5     6    2
    12     5     7   am
    13     7     8    1
    14     7    30    1
    15     8    20   ar
    16     8     9   ar
    17     9    10   ar
    18     9    31    1
    19    10    11    1
    20    10    12   ar
    21    12    13   ar
    22    12    32    1
    23    13    14    1
    24    13    20   ar
    25    14    15    1
    26    14    33    1
    27    15    16    1
    28    15    34    1
    29    15    35    1
    30    16    17    1
    31    16    18    1
    32    16    19    1
    33    20    36    1
    34    21    22    2
    35    21    23    1
    36    23    24    1
    37    24    37    1
    38    24    38    1
    39    24    39    1
@<TRIPOS>SUBSTRUCTURE
     1 <0>         1 TEMP              0 ****  ****    0 ROOT


##########                                Name:    ZINC000611836474
##########                DOCK_Rotatable_Bonds:                   7
##########                         Heavy_Atoms:                  22
##########                    Molecular_Weight:             366.258
##########                DOCK_Rotatable_Bonds:                   7
##########                       Formal_Charge:          -0.0300004
##########                     HBond_Acceptors:                   5
##########                        HBond_Donors:                   1
##########                         Heavy_Atoms:                  22
##########                          Grid_Score:          -27.089804
##########                     Grid_vdw_energy:          -26.335028
##########                      Grid_es_energy:           -0.754776
##########           Internal_energy_repulsive:            6.121086

@<TRIPOS>MOLECULE
ZINC000611836474
 42 43 1 0 0
SMALL
USER_CHARGES


@<TRIPOS>ATOM
      1 C1         -7.1051    1.5359   54.5532 C.3     1  ZINC000611836474   -0.1500
      2 C2         -8.5836    1.2877   54.2475 C.3     1  ZINC000611836474   -0.1400
      3 C3         -8.7999   -0.1968   53.9467 C.3     1  ZINC000611836474    0.1300
      4 N4        -10.2081   -0.4277   53.6152 N.pl3   1  ZINC000611836474   -0.3900
      5 N5        -10.7639   -0.4222   52.3295 N.2     1  ZINC000611836474   -0.2900
      6 C6        -12.0451   -0.6666   52.4329 C.2     1  ZINC000611836474    0.0600
      7 C7        -12.3523   -0.8365   53.7857 C.2     1  ZINC000611836474   -0.2800
      8 C8        -11.2005   -0.6896   54.4961 C.2     1  ZINC000611836474    0.3000
      9 N9        -11.0691   -0.7837   55.8814 N.am    1  ZINC000611836474   -0.6500
     10 C10       -10.8506   -1.9824   56.4576 C.2     1  ZINC000611836474    0.5200
     11 O11       -10.7668   -2.9790   55.7714 O.2     1  ZINC000611836474   -0.4700
     12 C12       -10.7103   -2.0844   57.9547 C.3     1  ZINC000611836474    0.0700
     13 H13        -9.6780   -2.3268   58.2071 H       1  ZINC000611836474    0.1100
     14 C14       -11.6354   -3.1839   58.4799 C.3     1  ZINC000611836474   -0.1800
     15 O15       -11.0665   -0.8363   58.5525 O.3     1  ZINC000611836474   -0.2700
     16 C16       -10.5586   -0.5758   59.7860 C.ar    1  ZINC000611836474    0.1500
     17 C17        -9.1913   -0.6516   60.0045 C.ar    1  ZINC000611836474   -0.2000
     18 C18        -8.6772   -0.3864   61.2594 C.ar    1  ZINC000611836474   -0.0600
     19 C19        -9.5246   -0.0461   62.2973 C.ar    1  ZINC000611836474   -0.1100
     20 C20        -8.9609    0.2421   63.6649 C.3     1  ZINC000611836474   -0.1100
     21 C21       -10.8885    0.0309   62.0827 C.ar    1  ZINC000611836474   -0.0500
     22 C22       -11.4073   -0.2277   60.8282 C.ar    1  ZINC000611836474   -0.1200
     23 Br23      -13.2724   -0.1224   60.5350 Br      1  ZINC000611836474   -0.0300
     24 H24        -6.9510    2.5934   54.7674 H       1  ZINC000611836474    0.0600
     25 H25        -6.8084    0.9429   55.4183 H       1  ZINC000611836474    0.0600
     26 H26        -6.5027    1.2482   53.6915 H       1  ZINC000611836474    0.0600
     27 H27        -9.1860    1.5754   55.1091 H       1  ZINC000611836474    0.0800
     28 H28        -8.8802    1.8807   53.3824 H       1  ZINC000611836474    0.0600
     29 H29        -8.1752   -0.4915   53.1035 H       1  ZINC000611836474    0.0800
     30 H30        -8.5310   -0.7879   54.8222 H       1  ZINC000611836474    0.1000
     31 H31       -12.7457   -0.7263   51.6132 H       1  ZINC000611836474    0.1900
     32 H32       -13.3288   -1.0498   54.1944 H       1  ZINC000611836474    0.1700
     33 H33       -11.1348    0.0134   56.4302 H       1  ZINC000611836474    0.4100
     34 H34       -11.3637   -4.1359   58.0239 H       1  ZINC000611836474    0.0800
     35 H35       -11.5339   -3.2576   59.5627 H       1  ZINC000611836474    0.0800
     36 H36       -12.6677   -2.9415   58.2274 H       1  ZINC000611836474    0.0800
     37 H37        -8.5286   -0.9183   59.1943 H       1  ZINC000611836474    0.1400
     38 H38        -7.6124   -0.4455   61.4297 H       1  ZINC000611836474    0.1300
     39 H39        -8.7302    1.3043   63.7464 H       1  ZINC000611836474    0.0700
     40 H40        -9.6936   -0.0299   64.4245 H       1  ZINC000611836474    0.0700
     41 H41        -8.0510   -0.3397   63.8127 H       1  ZINC000611836474    0.0700
     42 H42       -11.5484    0.2970   62.8952 H       1  ZINC000611836474    0.1400
@<TRIPOS>BOND
     1     1     2    1
     2     1    24    1
     3     1    25    1
     4     1    26    1
     5     2     3    1
     6     2    27    1
     7     2    28    1
     8     3     4    1
     9     3    29    1
    10     3    30    1
    11     4     8    1
    12     4     5    1
    13     5     6    2
    14     6     7    1
    15     6    31    1
    16     7     8    2
    17     7    32    1
    18     8     9    1
    19     9    10   am
    20     9    33    1
    21    10    11    2
    22    10    12    1
    23    12    13    1
    24    12    14    1
    25    12    15    1
    26    14    34    1
    27    14    35    1
    28    14    36    1
    29    15    16    1
    30    16    22   ar
    31    16    17   ar
    32    17    18   ar
    33    17    37    1
    34    18    19   ar
    35    18    38    1
    36    19    20    1
    37    19    21   ar
    38    20    39    1
    39    20    40    1
    40    20    41    1
    41    21    22   ar
    42    21    42    1
    43    22    23    1
@<TRIPOS>SUBSTRUCTURE
     1 ZINC000611836474        1 TEMP              0 ****  ****    0 ROOT


##########                                Name:    ZINC001436455587
##########                DOCK_Rotatable_Bonds:                   9
##########                         Heavy_Atoms:                  21
##########                    Molecular_Weight:             378.693
##########                DOCK_Rotatable_Bonds:                   9
##########                       Formal_Charge:          -0.0200001
##########                     HBond_Acceptors:                   5
##########                        HBond_Donors:                   1
##########                         Heavy_Atoms:                  21
##########                          Grid_Score:          -27.083448
##########                     Grid_vdw_energy:          -26.887695
##########                      Grid_es_energy:           -0.195753
##########           Internal_energy_repulsive:           13.884673

@<TRIPOS>MOLECULE
ZINC001436455587
 42 42 1 0 0
SMALL
USER_CHARGES


@<TRIPOS>ATOM
      1 C1         -9.3511    4.5943   49.0432 C.3     1  ZINC001436455587   -0.1500
      2 C2         -7.8886    4.2681   49.3522 C.3     1  ZINC001436455587   -0.1300
      3 C3         -7.7554    3.8660   50.8225 C.3     1  ZINC001436455587   -0.1400
      4 C4         -6.3047    3.4781   51.1157 C.3     1  ZINC001436455587    0.0800
      5 H5         -6.1008    2.4922   50.6978 H       1  ZINC001436455587    0.0700
      6 C6         -6.0810    3.4469   52.6289 C.3     1  ZINC001436455587    0.1200
      7 N7         -6.4965    2.1452   53.1572 N.am    1  ZINC001436455587   -0.7200
      8 C8         -7.5458    2.0635   53.9992 C.2     1  ZINC001436455587    0.5200
      9 O9         -8.1469    3.0674   54.3182 O.2     1  ZINC001436455587   -0.5100
     10 C10        -7.9722    0.7247   54.5441 C.3     1  ZINC001436455587    0.0600
     11 H11        -7.1926    0.3336   55.1979 H       1  ZINC001436455587    0.1000
     12 C12        -8.2015   -0.2479   53.3855 C.3     1  ZINC001436455587   -0.1800
     13 O13        -9.1841    0.8763   55.2858 O.3     1  ZINC001436455587   -0.2700
     14 C14        -9.1673    0.4752   56.5845 C.ar    1  ZINC001436455587    0.1600
     15 C15        -8.3540    1.1244   57.5010 C.ar    1  ZINC001436455587   -0.2000
     16 C16        -8.3385    0.7156   58.8210 C.ar    1  ZINC001436455587   -0.0500
     17 C17        -9.1332   -0.3408   59.2286 C.ar    1  ZINC001436455587   -0.0700
     18 Cl18       -9.1111   -0.8525   60.8874 Cl      1  ZINC001436455587   -0.0600
     19 C19        -9.9460   -0.9902   58.3161 C.ar    1  ZINC001436455587   -0.0400
     20 C20        -9.9684   -0.5811   56.9962 C.ar    1  ZINC001436455587   -0.1200
     21 Br21      -11.0791   -1.4684   55.7492 Br      1  ZINC001436455587   -0.0100
     22 O22        -5.4261    4.4372   50.5239 O.3     1  ZINC001436455587   -0.3800
     23 C23        -5.3852    5.6896   51.2111 C.3     1  ZINC001436455587    0.0200
     24 H24        -9.9679    3.7167   49.2373 H       1  ZINC001436455587    0.0500
     25 H25        -9.6814    5.4177   49.6765 H       1  ZINC001436455587    0.0600
     26 H26        -9.4461    4.8807   47.9958 H       1  ZINC001436455587    0.0600
     27 H27        -7.5583    3.4446   48.7191 H       1  ZINC001436455587    0.0600
     28 H28        -7.2718    5.1457   49.1583 H       1  ZINC001436455587    0.0700
     29 H29        -8.0421    4.7053   51.4561 H       1  ZINC001436455587    0.0800
     30 H30        -8.4071    3.0168   51.0273 H       1  ZINC001436455587    0.0800
     31 H31        -5.0240    3.6054   52.8432 H       1  ZINC001436455587    0.0800
     32 H32        -6.6692    4.2347   53.0995 H       1  ZINC001436455587    0.0800
     33 H33        -6.0164    1.3421   52.9012 H       1  ZINC001436455587    0.4000
     34 H34        -8.5099   -1.2162   53.7797 H       1  ZINC001436455587    0.0800
     35 H35        -8.9810    0.1432   52.7317 H       1  ZINC001436455587    0.0800
     36 H36        -7.2770   -0.3636   52.8198 H       1  ZINC001436455587    0.0800
     37 H37        -7.7329    1.9487   57.1834 H       1  ZINC001436455587    0.1500
     38 H38        -7.7052    1.2211   59.5349 H       1  ZINC001436455587    0.1400
     39 H39       -10.5659   -1.8145   58.6363 H       1  ZINC001436455587    0.1500
     40 H40        -4.9629    5.5448   52.2054 H       1  ZINC001436455587    0.0500
     41 H41        -4.7657    6.3907   50.6518 H       1  ZINC001436455587    0.0900
     42 H42        -6.3957    6.0884   51.2999 H       1  ZINC001436455587    0.0400
@<TRIPOS>BOND
     1     1     2    1
     2     1    24    1
     3     1    25    1
     4     1    26    1
     5     2     3    1
     6     2    27    1
     7     2    28    1
     8     3     4    1
     9     3    29    1
    10     3    30    1
    11     4     5    1
    12     4     6    1
    13     4    22    1
    14     6     7    1
    15     6    31    1
    16     6    32    1
    17     7     8   am
    18     7    33    1
    19     8     9    2
    20     8    10    1
    21    10    11    1
    22    10    12    1
    23    10    13    1
    24    12    34    1
    25    12    35    1
    26    12    36    1
    27    13    14    1
    28    14    20   ar
    29    14    15   ar
    30    15    16   ar
    31    15    37    1
    32    16    17   ar
    33    16    38    1
    34    17    18    1
    35    17    19   ar
    36    19    20   ar
    37    19    39    1
    38    20    21    1
    39    22    23    1
    40    23    40    1
    41    23    41    1
    42    23    42    1
@<TRIPOS>SUBSTRUCTURE
     1 ZINC001436455587        1 TEMP              0 ****  ****    0 ROOT


##########                                Name:    ZINC000951315041
##########                DOCK_Rotatable_Bonds:                   5
##########                         Heavy_Atoms:                  25
##########                    Molecular_Weight:             340.382
##########                DOCK_Rotatable_Bonds:                   5
##########                       Formal_Charge:          0.00999974
##########                     HBond_Acceptors:                   7
##########                        HBond_Donors:                   1
##########                         Heavy_Atoms:                  25
##########                          Grid_Score:          -27.052153
##########                     Grid_vdw_energy:          -27.493980
##########                      Grid_es_energy:            0.441827
##########           Internal_energy_repulsive:           23.879698

@<TRIPOS>MOLECULE
ZINC000951315041
 45 47 1 0 0
SMALL
USER_CHARGES


@<TRIPOS>ATOM
      1 C1        -12.9798   -0.0158   52.7824 C.3     1  ZINC000951315041    0.0500
      2 N2        -11.6321   -0.1633   53.3375 N.am    1  ZINC000951315041   -0.4900
      3 C3        -11.3630    0.3259   54.5623 C.2     1  ZINC000951315041    0.1700
      4 C4        -10.1005    0.1986   55.1046 C.2     1  ZINC000951315041   -0.2400
      5 C5         -9.8106    0.7362   56.4467 C.2     1  ZINC000951315041    0.5800
      6 O6         -9.4970    1.9036   56.5793 O.2     1  ZINC000951315041   -0.5200
      7 N7         -9.8932   -0.0662   57.5264 N.am    1  ZINC000951315041   -0.6000
      8 C8        -10.2708   -1.4787   57.3822 C.3     1  ZINC000951315041    0.1100
      9 C9        -11.4519   -1.7709   58.3131 C.3     1  ZINC000951315041   -0.1300
     10 C10       -11.0841   -1.3612   59.7411 C.3     1  ZINC000951315041   -0.1300
     11 C11       -10.7953    0.1411   59.7842 C.3     1  ZINC000951315041    0.1300
     12 H12       -11.6725    0.6902   59.4421 H       1  ZINC000951315041    0.1000
     13 N13       -10.4748    0.5382   61.1574 N.am    1  ZINC000951315041   -0.7200
     14 C14        -9.4261   -0.0208   61.7932 C.2     1  ZINC000951315041    0.5700
     15 O15        -8.7470   -0.8554   61.2276 O.2     1  ZINC000951315041   -0.5200
     16 C16        -9.1015    0.3811   63.1784 C.ar    1  ZINC000951315041   -0.1900
     17 C17        -7.9694   -0.1325   63.8218 C.ar    1  ZINC000951315041   -0.0100
     18 C18        -7.7100    0.2760   65.1184 C.ar    1  ZINC000951315041   -0.1800
     19 C19        -8.5691    1.1700   65.7312 C.ar    1  ZINC000951315041    0.1300
     20 N20        -9.6295    1.6375   65.1001 N.ar    1  ZINC000951315041   -0.4900
     21 C21        -9.9155    1.2835   63.8646 C.ar    1  ZINC000951315041    0.1400
     22 C22        -9.6013    0.4535   58.8693 C.3     1  ZINC000951315041    0.1000
     23 C23        -9.0856   -0.4528   54.3624 C.2     1  ZINC000951315041    0.0100
     24 C24        -9.3810   -0.9393   53.1275 C.2     1  ZINC000951315041   -0.2300
     25 C25       -10.6844   -0.7905   52.6174 C.2     1  ZINC000951315041    0.5100
     26 O26       -10.9544   -1.2256   51.5105 O.2     1  ZINC000951315041   -0.5400
     27 H27       -13.0169   -0.4711   51.7927 H       1  ZINC000951315041    0.1100
     28 H28       -13.6983   -0.5097   53.4367 H       1  ZINC000951315041    0.0800
     29 H29       -13.2269    1.0429   52.7048 H       1  ZINC000951315041    0.0800
     30 H30       -12.1406    0.8218   55.1242 H       1  ZINC000951315041    0.1700
     31 H31       -10.5615   -1.6758   56.3503 H       1  ZINC000951315041    0.1000
     32 H32        -9.4263   -2.1123   57.6534 H       1  ZINC000951315041    0.0700
     33 H33       -12.3228   -1.2038   57.9848 H       1  ZINC000951315041    0.0700
     34 H34       -11.6802   -2.8364   58.2877 H       1  ZINC000951315041    0.0900
     35 H35       -11.9138   -1.5908   60.4097 H       1  ZINC000951315041    0.0800
     36 H36       -10.1983   -1.9106   60.0599 H       1  ZINC000951315041    0.0700
     37 H37       -11.0173    1.2033   61.6092 H       1  ZINC000951315041    0.4000
     38 H38        -7.3154   -0.8299   63.3194 H       1  ZINC000951315041    0.1500
     39 H39        -6.8459   -0.0996   65.6463 H       1  ZINC000951315041    0.1500
     40 H40        -8.3690    1.4904   66.7430 H       1  ZINC000951315041    0.1600
     41 H41       -10.7925    1.6880   63.3812 H       1  ZINC000951315041    0.1600
     42 H42        -8.7039   -0.0227   59.2642 H       1  ZINC000951315041    0.0700
     43 H43        -9.4527    1.5321   58.8180 H       1  ZINC000951315041    0.0900
     44 H44        -8.0917   -0.5611   54.7709 H       1  ZINC000951315041    0.1400
     45 H45        -8.6220   -1.4392   52.5439 H       1  ZINC000951315041    0.1600
@<TRIPOS>BOND
     1     1     2    1
     2     1    27    1
     3     1    28    1
     4     1    29    1
     5     2    25   am
     6     2     3    1
     7     3     4    2
     8     3    30    1
     9     4     5    1
    10     4    23    1
    11     5     6    2
    12     5     7   am
    13     7    22    1
    14     7     8    1
    15     8     9    1
    16     8    31    1
    17     8    32    1
    18     9    10    1
    19     9    33    1
    20     9    34    1
    21    10    11    1
    22    10    35    1
    23    10    36    1
    24    11    12    1
    25    11    13    1
    26    11    22    1
    27    13    14   am
    28    13    37    1
    29    14    15    2
    30    14    16    1
    31    16    21   ar
    32    16    17   ar
    33    17    18   ar
    34    17    38    1
    35    18    19   ar
    36    18    39    1
    37    19    20   ar
    38    19    40    1
    39    20    21   ar
    40    21    41    1
    41    22    42    1
    42    22    43    1
    43    23    24    2
    44    23    44    1
    45    24    25    1
    46    24    45    1
    47    25    26    2
@<TRIPOS>SUBSTRUCTURE
     1 ZINC000951315041        1 TEMP              0 ****  ****    0 ROOT


##########                                Name:    ZINC000676564986
##########                DOCK_Rotatable_Bonds:                   5
##########                         Heavy_Atoms:                  25
##########                    Molecular_Weight:             347.444
##########                DOCK_Rotatable_Bonds:                   5
##########                       Formal_Charge:          -0.0100005
##########                     HBond_Acceptors:                   6
##########                        HBond_Donors:                   1
##########                         Heavy_Atoms:                  25
##########                          Grid_Score:          -27.051292
##########                     Grid_vdw_energy:          -26.508602
##########                      Grid_es_energy:           -0.542690
##########           Internal_energy_repulsive:            5.466177

@<TRIPOS>MOLECULE
ZINC000676564986
 42 45 1 0 0
SMALL
USER_CHARGES


@<TRIPOS>ATOM
      1 C1         -8.0979    0.5998   66.5994 C.3     1  ZINC000676564986    0.0800
      2 N2         -8.4905    0.4320   65.1980 N.pl3   1  ZINC000676564986   -0.4800
      3 C3         -7.6930   -0.0085   64.1840 C.2     1  ZINC000676564986    0.2500
      4 N4         -8.3648   -0.0358   63.0697 N.2     1  ZINC000676564986   -0.4600
      5 C5         -9.6325    0.3844   63.2971 C.ar    1  ZINC000676564986   -0.1100
      6 C6        -10.7738    0.5598   62.4967 C.ar    1  ZINC000676564986    0.5100
      7 N7        -10.7397    0.2753   61.1428 N.pl3   1  ZINC000676564986   -0.6900
      8 C8        -10.2933    1.2955   60.1909 C.3     1  ZINC000676564986    0.1700
      9 C9        -10.8827    1.0086   58.8339 C.ar    1  ZINC000676564986   -0.0800
     10 C10       -11.7686    1.9043   58.2631 C.ar    1  ZINC000676564986   -0.1100
     11 C11       -12.3106    1.6447   57.0200 C.ar    1  ZINC000676564986   -0.0700
     12 C12       -11.9651    0.4817   56.3422 C.ar    1  ZINC000676564986   -0.1300
     13 S13       -12.6537    0.1465   54.7555 S.3     1  ZINC000676564986   -0.0100
     14 C14       -11.2300   -0.1429   53.7585 C.ar    1  ZINC000676564986   -0.1000
     15 C15       -11.3468   -0.8440   52.5643 C.ar    1  ZINC000676564986   -0.1200
     16 C16       -10.2291   -1.0685   51.7853 C.ar    1  ZINC000676564986   -0.1000
     17 C17        -8.9944   -0.5965   52.1921 C.ar    1  ZINC000676564986   -0.1200
     18 C18        -8.8743    0.1016   53.3800 C.ar    1  ZINC000676564986   -0.1000
     19 C19        -9.9887    0.3344   54.1616 C.ar    1  ZINC000676564986   -0.1000
     20 C20       -11.0746   -0.4160   56.9189 C.ar    1  ZINC000676564986   -0.0700
     21 C21       -10.5322   -0.1472   58.1599 C.ar    1  ZINC000676564986   -0.1100
     22 N22       -11.8872    1.0050   63.0700 N.ar    1  ZINC000676564986   -0.5900
     23 C23       -11.9292    1.2786   64.3611 C.ar    1  ZINC000676564986    0.3600
     24 N24       -10.8851    1.1299   65.1493 N.ar    1  ZINC000676564986   -0.5600
     25 C25        -9.7301    0.6841   64.6665 C.ar    1  ZINC000676564986    0.3000
     26 H26        -8.2810   -0.3280   67.1416 H       1  ZINC000676564986    0.0800
     27 H27        -7.0379    0.8485   66.6525 H       1  ZINC000676564986    0.0900
     28 H28        -8.6826    1.4035   67.0469 H       1  ZINC000676564986    0.0900
     29 H29        -6.6564   -0.2926   64.2897 H       1  ZINC000676564986    0.2200
     30 H30       -11.0113   -0.5997   60.8239 H       1  ZINC000676564986    0.4200
     31 H31       -10.6228    2.2776   60.5299 H       1  ZINC000676564986    0.0800
     32 H32        -9.2054    1.2800   60.1251 H       1  ZINC000676564986    0.0800
     33 H33       -12.0370    2.8078   58.7905 H       1  ZINC000676564986    0.1300
     34 H34       -13.0026    2.3444   56.5750 H       1  ZINC000676564986    0.1400
     35 H35       -12.3106   -1.2132   52.2461 H       1  ZINC000676564986    0.1200
     36 H36       -10.3191   -1.6136   50.8573 H       1  ZINC000676564986    0.1300
     37 H37        -8.1218   -0.7739   51.5810 H       1  ZINC000676564986    0.1300
     38 H38        -7.9087    0.4687   53.6947 H       1  ZINC000676564986    0.1300
     39 H39        -9.8943    0.8799   55.0889 H       1  ZINC000676564986    0.1300
     40 H40       -10.8038   -1.3208   56.3950 H       1  ZINC000676564986    0.1300
     41 H41        -9.8402   -0.8443   58.6086 H       1  ZINC000676564986    0.1300
     42 H42       -12.8544    1.6382   64.7865 H       1  ZINC000676564986    0.2000
@<TRIPOS>BOND
     1     1     2    1
     2     1    26    1
     3     1    27    1
     4     1    28    1
     5     2    25    1
     6     2     3    1
     7     3     4    2
     8     3    29    1
     9     4     5    1
    10     5    25   ar
    11     5     6   ar
    12     6     7    1
    13     6    22   ar
    14     7     8    1
    15     7    30    1
    16     8     9    1
    17     8    31    1
    18     8    32    1
    19     9    21   ar
    20     9    10   ar
    21    10    11   ar
    22    10    33    1
    23    11    12   ar
    24    11    34    1
    25    12    13    1
    26    12    20   ar
    27    13    14    1
    28    14    19   ar
    29    14    15   ar
    30    15    16   ar
    31    15    35    1
    32    16    17   ar
    33    16    36    1
    34    17    18   ar
    35    17    37    1
    36    18    19   ar
    37    18    38    1
    38    19    39    1
    39    20    21   ar
    40    20    40    1
    41    21    41    1
    42    22    23   ar
    43    23    24   ar
    44    23    42    1
    45    24    25   ar
@<TRIPOS>SUBSTRUCTURE
     1 ZINC000676564986        1 TEMP              0 ****  ****    0 ROOT


##########                                Name:    ZINC000481838178
##########                DOCK_Rotatable_Bonds:                   6
##########                         Heavy_Atoms:                  29
##########                    Molecular_Weight:             408.524
##########                DOCK_Rotatable_Bonds:                   6
##########                       Formal_Charge:         -0.00999962
##########                     HBond_Acceptors:                   7
##########                        HBond_Donors:                   0
##########                         Heavy_Atoms:                  29
##########                          Grid_Score:          -27.046713
##########                     Grid_vdw_energy:          -27.108727
##########                      Grid_es_energy:            0.062013
##########           Internal_energy_repulsive:            6.329525

@<TRIPOS>MOLECULE
ZINC000481838178
 53 57 1 0 0
SMALL
USER_CHARGES


@<TRIPOS>ATOM
      1 O1         -3.9050    5.0316   51.2593 O.2     1  ZINC000481838178   -0.5200
      2 C2         -4.6918    4.3650   51.8977 C.2     1  ZINC000481838178    0.5500
      3 C3         -4.2694    3.7491   53.2066 C.3     1  ZINC000481838178   -0.1500
      4 S4         -3.9667    5.0581   54.4194 S.3     1  ZINC000481838178    0.1000
      5 C5         -2.6448    4.3318   55.3302 C.2     1  ZINC000481838178    0.1600
      6 N6         -1.5351    3.8354   54.8312 N.2     1  ZINC000481838178   -0.2800
      7 N7         -0.7866    3.3860   55.7740 N.2     1  ZINC000481838178   -0.2500
      8 C8         -1.3716    3.5670   56.9381 C.2     1  ZINC000481838178    0.2700
      9 C9         -0.8365    3.1882   58.2547 C.2     1  ZINC000481838178    0.0300
     10 C10        -1.5439    2.6240   59.2739 C.2     1  ZINC000481838178   -0.1300
     11 C11        -0.6401    2.4321   60.3368 C.2     1  ZINC000481838178   -0.2100
     12 C12         0.5606    2.8823   59.9215 C.2     1  ZINC000481838178   -0.0100
     13 O13         0.4401    3.3329   58.6617 O.3     1  ZINC000481838178   -0.1700
     14 N14        -2.5797    4.1851   56.6899 N.pl3   1  ZINC000481838178   -0.4100
     15 C15        -3.5426    4.5732   57.6316 C.ar    1  ZINC000481838178    0.1000
     16 C16        -4.7132    3.8401   57.7722 C.ar    1  ZINC000481838178   -0.0800
     17 C17        -5.6603    4.2252   58.7009 C.ar    1  ZINC000481838178   -0.1100
     18 C18        -5.4435    5.3396   59.4903 C.ar    1  ZINC000481838178   -0.1000
     19 C19        -4.2785    6.0718   59.3526 C.ar    1  ZINC000481838178   -0.1100
     20 C20        -3.3252    5.6884   58.4296 C.ar    1  ZINC000481838178   -0.0900
     21 N21        -5.9455    4.1795   51.4392 N.am    1  ZINC000481838178   -0.6200
     22 C22        -7.0155    3.4004   52.1179 C.3     1  ZINC000481838178    0.1000
     23 C23        -8.3037    4.0288   51.5734 C.3     1  ZINC000481838178   -0.1100
     24 H24        -8.4846    5.0037   52.0260 H       1  ZINC000481838178    0.0900
     25 C25        -9.5488    3.1642   51.6334 C.3     1  ZINC000481838178   -0.1100
     26 C26       -10.6747    3.9442   50.9342 C.3     1  ZINC000481838178   -0.1200
     27 C27       -10.3069    4.2962   49.4964 C.3     1  ZINC000481838178   -0.1200
     28 C28        -8.9639    5.0421   49.4217 C.3     1  ZINC000481838178   -0.1000
     29 C29        -7.9155    4.1683   50.0706 C.3     1  ZINC000481838178   -0.1100
     30 H30        -7.9158    3.1807   49.6094 H       1  ZINC000481838178    0.0900
     31 C31        -6.4979    4.7229   50.1734 C.3     1  ZINC000481838178    0.1200
     32 H32        -5.0593    3.0920   53.5708 H       1  ZINC000481838178    0.1300
     33 H33        -3.3563    3.1724   53.0591 H       1  ZINC000481838178    0.1300
     34 H34        -2.5943    2.3731   59.2679 H       1  ZINC000481838178    0.1600
     35 H35        -0.8665    2.0051   61.3025 H       1  ZINC000481838178    0.1600
     36 H36         1.4703    2.8773   60.5037 H       1  ZINC000481838178    0.2100
     37 H37        -4.8833    2.9699   57.1556 H       1  ZINC000481838178    0.1300
     38 H38        -6.5712    3.6555   58.8105 H       1  ZINC000481838178    0.1400
     39 H39        -6.1855    5.6390   60.2156 H       1  ZINC000481838178    0.1300
     40 H40        -4.1121    6.9420   59.9703 H       1  ZINC000481838178    0.1400
     41 H41        -2.4155    6.2607   58.3225 H       1  ZINC000481838178    0.1300
     42 H42        -6.9562    2.3466   51.8455 H       1  ZINC000481838178    0.0800
     43 H43        -6.9544    3.5236   53.1993 H       1  ZINC000481838178    0.0800
     44 H44        -9.3722    2.2218   51.1149 H       1  ZINC000481838178    0.0700
     45 H45        -9.8188    2.9730   52.6721 H       1  ZINC000481838178    0.0700
     46 H46       -11.5797    3.3365   50.9314 H       1  ZINC000481838178    0.0600
     47 H47       -10.8670    4.8635   51.4874 H       1  ZINC000481838178    0.0600
     48 H48       -10.2374    3.3786   48.9121 H       1  ZINC000481838178    0.0600
     49 H49       -11.0886    4.9274   49.0735 H       1  ZINC000481838178    0.0700
     50 H50        -8.6996    5.2284   48.3807 H       1  ZINC000481838178    0.0700
     51 H51        -9.0323    5.9857   49.9631 H       1  ZINC000481838178    0.0700
     52 H52        -6.5206    5.8123   50.1960 H       1  ZINC000481838178    0.0700
     53 H53        -5.8961    4.3756   49.3336 H       1  ZINC000481838178    0.0700
@<TRIPOS>BOND
     1     1     2    2
     2     2     3    1
     3     2    21   am
     4     3     4    1
     5     3    32    1
     6     3    33    1
     7     4     5    1
     8     5    14    1
     9     5     6    2
    10     6     7    1
    11     7     8    2
    12     8     9    1
    13     8    14    1
    14     9    13    1
    15     9    10    2
    16    10    11    1
    17    10    34    1
    18    11    12    2
    19    11    35    1
    20    12    13    1
    21    12    36    1
    22    14    15    1
    23    15    20   ar
    24    15    16   ar
    25    16    17   ar
    26    16    37    1
    27    17    18   ar
    28    17    38    1
    29    18    19   ar
    30    18    39    1
    31    19    20   ar
    32    19    40    1
    33    20    41    1
    34    21    31    1
    35    21    22    1
    36    22    23    1
    37    22    42    1
    38    22    43    1
    39    23    24    1
    40    23    29    1
    41    23    25    1
    42    25    26    1
    43    25    44    1
    44    25    45    1
    45    26    27    1
    46    26    46    1
    47    26    47    1
    48    27    28    1
    49    27    48    1
    50    27    49    1
    51    28    29    1
    52    28    50    1
    53    28    51    1
    54    29    30    1
    55    29    31    1
    56    31    52    1
    57    31    53    1
@<TRIPOS>SUBSTRUCTURE
     1 ZINC000481838178        1 TEMP              0 ****  ****    0 ROOT


##########                                Name:    ZINC000790735374
##########                DOCK_Rotatable_Bonds:                   5
##########                         Heavy_Atoms:                  25
##########                    Molecular_Weight:             353.445
##########                DOCK_Rotatable_Bonds:                   5
##########                       Formal_Charge:                   0
##########                     HBond_Acceptors:                   6
##########                        HBond_Donors:                   1
##########                         Heavy_Atoms:                  25
##########                          Grid_Score:          -27.042273
##########                     Grid_vdw_energy:          -26.353451
##########                      Grid_es_energy:           -0.688821
##########           Internal_energy_repulsive:            9.949858

@<TRIPOS>MOLECULE
ZINC000790735374
 44 47 1 0 0
SMALL
USER_CHARGES


@<TRIPOS>ATOM
      1 O1        -11.1779   -3.1689   58.5157 O.2     1  ZINC000790735374   -0.5100
      2 C2        -10.9194   -2.2264   57.7975 C.2     1  ZINC000790735374    0.5000
      3 N3        -10.1948   -1.1948   58.2742 N.am    1  ZINC000790735374   -0.7200
      4 C4         -9.7246   -1.2091   59.6616 C.3     1  ZINC000790735374    0.1400
      5 C5         -8.6902   -0.0996   59.8611 C.3     1  ZINC000790735374   -0.0300
      6 H6         -7.6886   -0.5247   59.7962 H       1  ZINC000790735374    0.1100
      7 S7         -8.8955    1.1517   58.5649 S.3     1  ZINC000790735374   -0.2400
      8 C8         -7.8950    2.5139   59.2417 C.3     1  ZINC000790735374   -0.0800
      9 C9         -8.5498    2.9709   60.5368 C.3     1  ZINC000790735374   -0.0800
     10 C10        -8.7939    1.8551   61.5127 C.ar    1  ZINC000790735374   -0.0700
     11 C11        -8.9476    2.2692   62.8401 C.ar    1  ZINC000790735374   -0.1200
     12 C12        -9.1929    1.3690   63.8501 C.ar    1  ZINC000790735374   -0.1100
     13 C13        -9.2935    0.0226   63.5527 C.ar    1  ZINC000790735374   -0.1200
     14 C14        -9.1374   -0.3921   62.2498 C.ar    1  ZINC000790735374   -0.1100
     15 C15        -8.8813    0.5218   61.2225 C.ar    1  ZINC000790735374   -0.0800
     16 C16       -11.4031   -2.2116   56.3703 C.3     1  ZINC000790735374    0.0300
     17 H17       -12.3170   -2.7961   56.2641 H       1  ZINC000790735374    0.1500
     18 C18       -11.6117   -0.7619   55.8711 C.3     1  ZINC000790735374   -0.1400
     19 C19       -10.2868   -0.4498   55.2017 C.2     1  ZINC000790735374    0.1200
     20 C20        -9.8020    0.8935   54.8274 C.ar    1  ZINC000790735374   -0.1000
     21 C21        -8.5581    1.0536   54.2051 C.ar    1  ZINC000790735374   -0.0400
     22 C22        -8.1503    2.3340   53.8742 C.ar    1  ZINC000790735374   -0.1700
     23 C23        -8.9763    3.4043   54.1658 C.ar    1  ZINC000790735374    0.1200
     24 N24       -10.1439    3.2237   54.7531 N.ar    1  ZINC000790735374   -0.4800
     25 C25       -10.5787    2.0253   55.0827 C.ar    1  ZINC000790735374    0.1400
     26 N26        -9.6561   -1.5606   55.0156 N.2     1  ZINC000790735374   -0.2700
     27 O27       -10.3790   -2.6873   55.4734 O.3     1  ZINC000790735374   -0.1600
     28 H28        -9.9847   -0.4428   57.6987 H       1  ZINC000790735374    0.4100
     29 H29       -10.5677   -1.0448   60.3326 H       1  ZINC000790735374    0.0800
     30 H30        -9.2687   -2.1746   59.8807 H       1  ZINC000790735374    0.0900
     31 H31        -6.8825    2.1639   59.4431 H       1  ZINC000790735374    0.0900
     32 H32        -7.8665    3.3398   58.5308 H       1  ZINC000790735374    0.1100
     33 H33        -7.9070    3.7134   61.0095 H       1  ZINC000790735374    0.0900
     34 H34        -9.5039    3.4407   60.2984 H       1  ZINC000790735374    0.0900
     35 H35        -8.8716    3.3201   63.0771 H       1  ZINC000790735374    0.1200
     36 H36        -9.3057    1.7110   64.8682 H       1  ZINC000790735374    0.1300
     37 H37        -9.4922   -0.6959   64.3342 H       1  ZINC000790735374    0.1300
     38 H38        -9.2167   -1.4435   62.0161 H       1  ZINC000790735374    0.1300
     39 H39       -12.4294   -0.7142   55.1519 H       1  ZINC000790735374    0.1200
     40 H40       -11.7911   -0.0866   56.7078 H       1  ZINC000790735374    0.1100
     41 H41        -7.9328    0.2000   53.9892 H       1  ZINC000790735374    0.1500
     42 H42        -7.1968    2.4959   53.3935 H       1  ZINC000790735374    0.1500
     43 H43        -8.6602    4.4046   53.9090 H       1  ZINC000790735374    0.1600
     44 H44       -11.5405    1.9176   55.5619 H       1  ZINC000790735374    0.1600
@<TRIPOS>BOND
     1     1     2    2
     2     2     3   am
     3     2    16    1
     4     3     4    1
     5     3    28    1
     6     4     5    1
     7     4    29    1
     8     4    30    1
     9     5     6    1
    10     5    15    1
    11     5     7    1
    12     7     8    1
    13     8     9    1
    14     8    31    1
    15     8    32    1
    16     9    10    1
    17     9    33    1
    18     9    34    1
    19    10    15   ar
    20    10    11   ar
    21    11    12   ar
    22    11    35    1
    23    12    13   ar
    24    12    36    1
    25    13    14   ar
    26    13    37    1
    27    14    15   ar
    28    14    38    1
    29    16    17    1
    30    16    27    1
    31    16    18    1
    32    18    19    1
    33    18    39    1
    34    18    40    1
    35    19    20    1
    36    19    26    2
    37    20    25   ar
    38    20    21   ar
    39    21    22   ar
    40    21    41    1
    41    22    23   ar
    42    22    42    1
    43    23    24   ar
    44    23    43    1
    45    24    25   ar
    46    25    44    1
    47    26    27    1
@<TRIPOS>SUBSTRUCTURE
     1 ZINC000790735374        1 TEMP              0 ****  ****    0 ROOT


##########                                Name:    ZINC001009984555
##########                DOCK_Rotatable_Bonds:                   7
##########                         Heavy_Atoms:                  23
##########                    Molecular_Weight:             338.446
##########                DOCK_Rotatable_Bonds:                   7
##########                       Formal_Charge:           0.0400002
##########                     HBond_Acceptors:                   6
##########                        HBond_Donors:                   1
##########                         Heavy_Atoms:                  23
##########                          Grid_Score:          -27.038849
##########                     Grid_vdw_energy:          -25.451410
##########                      Grid_es_energy:           -1.587438
##########           Internal_energy_repulsive:           10.819272

@<TRIPOS>MOLECULE
ZINC001009984555
 46 47 1 0 0
SMALL
USER_CHARGES


@<TRIPOS>ATOM
      1 C1         -8.4224    5.5896   47.2917 C.3     1  ZINC001009984555   -0.1400
      2 S2         -7.5639    5.9354   48.8519 S.3     1  ZINC001009984555   -0.1800
      3 C3         -7.5902    4.3303   49.6965 C.3     1  ZINC001009984555   -0.1300
      4 C4         -6.8823    4.4483   51.0217 C.2     1  ZINC001009984555    0.5500
      5 O5         -5.9862    5.2536   51.1609 O.2     1  ZINC001009984555   -0.5100
      6 N6         -7.2450    3.6589   52.0521 N.am    1  ZINC001009984555   -0.6100
      7 C7         -8.3067    2.6367   52.0191 C.3     1  ZINC001009984555    0.1000
      8 C8         -7.9291    1.6365   53.1401 C.3     1  ZINC001009984555   -0.1100
      9 H9         -7.1691    0.9342   52.7976 H       1  ZINC001009984555    0.1000
     10 C10        -9.1655    0.8951   53.6528 C.3     1  ZINC001009984555    0.1300
     11 N11        -8.9007    0.3751   54.9967 N.am    1  ZINC001009984555   -0.7300
     12 C12        -9.8489    0.4592   55.9507 C.2     1  ZINC001009984555    0.5600
     13 O13       -10.9243    0.9654   55.6958 O.2     1  ZINC001009984555   -0.5200
     14 C14        -9.5811   -0.0640   57.3074 C.ar    1  ZINC001009984555   -0.1200
     15 C15        -8.8338    0.6894   58.2138 C.ar    1  ZINC001009984555   -0.0900
     16 C16        -8.5867    0.1965   59.4787 C.ar    1  ZINC001009984555   -0.1000
     17 C17        -9.0772   -1.0420   59.8503 C.ar    1  ZINC001009984555   -0.1200
     18 C18        -9.8202   -1.7961   58.9558 C.ar    1  ZINC001009984555    0.0900
     19 F19       -10.2963   -3.0052   59.3255 F       1  ZINC001009984555   -0.1300
     20 C20       -10.0795   -1.3106   57.6885 C.ar    1  ZINC001009984555   -0.0500
     21 C21       -10.8875   -2.1306   56.7161 C.3     1  ZINC001009984555   -0.1200
     22 C22        -7.3592    2.5866   54.2264 C.3     1  ZINC001009984555   -0.1200
     23 C23        -6.6429    3.6702   53.3933 C.3     1  ZINC001009984555    0.1400
     24 H24        -6.7901    4.6481   53.8520 H       1  ZINC001009984555    0.0800
     25 C25        -5.1480    3.3563   53.3065 C.3     1  ZINC001009984555   -0.1700
     26 H26        -9.4342    5.2439   47.5028 H       1  ZINC001009984555    0.0800
     27 H27        -8.4667    6.4988   46.6922 H       1  ZINC001009984555    0.1100
     28 H28        -7.8820    4.8185   46.7428 H       1  ZINC001009984555    0.0800
     29 H29        -8.6230    4.0239   49.8624 H       1  ZINC001009984555    0.1100
     30 H30        -7.0852    3.5868   49.0799 H       1  ZINC001009984555    0.1100
     31 H31        -9.2762    3.0899   52.2258 H       1  ZINC001009984555    0.0800
     32 H32        -8.3201    2.1348   51.0516 H       1  ZINC001009984555    0.0800
     33 H33       -10.0116    1.5814   53.6890 H       1  ZINC001009984555    0.0800
     34 H34        -9.3971    0.0677   52.9822 H       1  ZINC001009984555    0.0800
     35 H35        -8.0430   -0.0298   55.1997 H       1  ZINC001009984555    0.4000
     36 H36        -8.4491    1.6565   57.9255 H       1  ZINC001009984555    0.1300
     37 H37        -8.0083    0.7794   60.1803 H       1  ZINC001009984555    0.1400
     38 H38        -8.8801   -1.4233   60.8414 H       1  ZINC001009984555    0.1400
     39 H39       -11.9267   -1.8024   56.7396 H       1  ZINC001009984555    0.0800
     40 H40       -10.4879   -1.9997   55.7105 H       1  ZINC001009984555    0.1000
     41 H41       -10.8326   -3.1830   56.9947 H       1  ZINC001009984555    0.0600
     42 H42        -8.1640    3.0205   54.8199 H       1  ZINC001009984555    0.0900
     43 H43        -6.6485    2.0610   54.8641 H       1  ZINC001009984555    0.0900
     44 H44        -5.0077    2.3856   52.8308 H       1  ZINC001009984555    0.0600
     45 H45        -4.6489    4.1254   52.7171 H       1  ZINC001009984555    0.0700
     46 H46        -4.7226    3.3341   54.3098 H       1  ZINC001009984555    0.0700
@<TRIPOS>BOND
     1     1     2    1
     2     1    26    1
     3     1    27    1
     4     1    28    1
     5     2     3    1
     6     3     4    1
     7     3    29    1
     8     3    30    1
     9     4     5    2
    10     4     6   am
    11     6    23    1
    12     6     7    1
    13     7     8    1
    14     7    31    1
    15     7    32    1
    16     8     9    1
    17     8    10    1
    18     8    22    1
    19    10    11    1
    20    10    33    1
    21    10    34    1
    22    11    12   am
    23    11    35    1
    24    12    13    2
    25    12    14    1
    26    14    20   ar
    27    14    15   ar
    28    15    16   ar
    29    15    36    1
    30    16    17   ar
    31    16    37    1
    32    17    18   ar
    33    17    38    1
    34    18    19    1
    35    18    20   ar
    36    20    21    1
    37    21    39    1
    38    21    40    1
    39    21    41    1
    40    22    23    1
    41    22    42    1
    42    22    43    1
    43    23    24    1
    44    23    25    1
    45    25    44    1
    46    25    45    1
    47    25    46    1
@<TRIPOS>SUBSTRUCTURE
     1 ZINC001009984555        1 TEMP              0 ****  ****    0 ROOT


##########                                Name:    ZINC000179743483
##########                DOCK_Rotatable_Bonds:                   5
##########                         Heavy_Atoms:                  23
##########                    Molecular_Weight:             393.347
##########                DOCK_Rotatable_Bonds:                   5
##########                       Formal_Charge:          -0.0199999
##########                     HBond_Acceptors:                   4
##########                        HBond_Donors:                   0
##########                         Heavy_Atoms:                  23
##########                          Grid_Score:          -27.022779
##########                     Grid_vdw_energy:          -26.297325
##########                      Grid_es_energy:           -0.725455
##########           Internal_energy_repulsive:           22.545885

@<TRIPOS>MOLECULE
ZINC000179743483
 44 46 1 0 0
SMALL
USER_CHARGES


@<TRIPOS>ATOM
      1 C1         -8.3870   -0.2845   60.2785 C.3     1  ZINC000179743483   -0.1400
      2 C2         -9.0713    0.1868   58.9937 C.3     1  ZINC000179743483   -0.1000
      3 H3         -8.9718   -0.5810   58.2264 H       1  ZINC000179743483    0.1000
      4 C4        -10.5544    0.4424   59.2701 C.3     1  ZINC000179743483   -0.0700
      5 C5        -11.3760   -0.6700   58.6713 C.ar    1  ZINC000179743483   -0.0600
      6 C6        -10.9762   -1.9845   58.8256 C.ar    1  ZINC000179743483   -0.1100
      7 C7        -11.7297   -3.0050   58.2769 C.ar    1  ZINC000179743483   -0.0900
      8 C8        -12.8839   -2.7112   57.5733 C.ar    1  ZINC000179743483   -0.0900
      9 Br9       -13.9155   -4.1071   56.8230 Br      1  ZINC000179743483   -0.0500
     10 C10       -13.2834   -1.3959   57.4193 C.ar    1  ZINC000179743483   -0.0900
     11 C11       -12.5322   -0.3763   57.9728 C.ar    1  ZINC000179743483   -0.1100
     12 C12        -8.4224    1.4605   58.5169 C.2     1  ZINC000179743483    0.5200
     13 O13        -7.7296    2.1080   59.2731 O.2     1  ZINC000179743483   -0.5300
     14 N14        -8.6117    1.8802   57.2502 N.am    1  ZINC000179743483   -0.6100
     15 C15        -7.9856    3.1199   56.7710 C.3     1  ZINC000179743483    0.1000
     16 C16        -7.1948    2.8119   55.4956 C.3     1  ZINC000179743483   -0.1400
     17 C17        -8.1187    2.1399   54.4772 C.3     1  ZINC000179743483   -0.1100
     18 C18        -8.6410    0.8213   55.0520 C.3     1  ZINC000179743483   -0.0200
     19 H19        -7.8000    0.1713   55.2936 H       1  ZINC000179743483    0.0900
     20 C20        -9.5241    0.1443   54.0357 C.2     1  ZINC000179743483    0.0500
     21 N21       -10.6344   -0.4553   54.3048 N.2     1  ZINC000179743483   -0.4700
     22 C22       -11.2855   -0.9960   53.2947 C.2     1  ZINC000179743483    0.0400
     23 C23       -10.6913   -0.8440   52.1074 C.2     1  ZINC000179743483   -0.2600
     24 S24        -9.2034    0.0659   52.3581 S.3     1  ZINC000179743483    0.1300
     25 C25        -9.4432    1.1035   56.3206 C.3     1  ZINC000179743483    0.1200
     26 H26        -8.4191    0.5131   61.0208 H       1  ZINC000179743483    0.0700
     27 H27        -8.9051   -1.1619   60.6653 H       1  ZINC000179743483    0.0700
     28 H28        -7.3492   -0.5402   60.0647 H       1  ZINC000179743483    0.0600
     29 H29       -10.7223    0.4792   60.3464 H       1  ZINC000179743483    0.0900
     30 H30       -10.8486    1.3922   58.8237 H       1  ZINC000179743483    0.0800
     31 H31       -10.0749   -2.2137   59.3745 H       1  ZINC000179743483    0.1300
     32 H32       -11.4171   -4.0318   58.3971 H       1  ZINC000179743483    0.1300
     33 H33       -14.1845   -1.1660   56.8701 H       1  ZINC000179743483    0.1300
     34 H34       -12.8441    0.6508   57.8526 H       1  ZINC000179743483    0.1300
     35 H35        -8.7572    3.8584   56.5532 H       1  ZINC000179743483    0.0700
     36 H36        -7.3111    3.5074   57.5346 H       1  ZINC000179743483    0.0900
     37 H37        -6.8048    3.7394   55.0765 H       1  ZINC000179743483    0.0800
     38 H38        -6.3675    2.1432   55.7331 H       1  ZINC000179743483    0.0700
     39 H39        -8.9590    2.7990   54.2589 H       1  ZINC000179743483    0.0800
     40 H40        -7.5647    1.9420   53.5596 H       1  ZINC000179743483    0.0700
     41 H41       -12.2223   -1.5194   53.4165 H       1  ZINC000179743483    0.1800
     42 H42       -11.0599   -1.2108   51.1608 H       1  ZINC000179743483    0.1800
     43 H43        -9.7328    0.1617   56.7869 H       1  ZINC000179743483    0.0900
     44 H44       -10.3344    1.6784   56.0691 H       1  ZINC000179743483    0.0800
@<TRIPOS>BOND
     1     1     2    1
     2     1    26    1
     3     1    27    1
     4     1    28    1
     5     2     3    1
     6     2     4    1
     7     2    12    1
     8     4     5    1
     9     4    29    1
    10     4    30    1
    11     5    11   ar
    12     5     6   ar
    13     6     7   ar
    14     6    31    1
    15     7     8   ar
    16     7    32    1
    17     8     9    1
    18     8    10   ar
    19    10    11   ar
    20    10    33    1
    21    11    34    1
    22    12    13    2
    23    12    14   am
    24    14    25    1
    25    14    15    1
    26    15    16    1
    27    15    35    1
    28    15    36    1
    29    16    17    1
    30    16    37    1
    31    16    38    1
    32    17    18    1
    33    17    39    1
    34    17    40    1
    35    18    19    1
    36    18    20    1
    37    18    25    1
    38    20    24    1
    39    20    21    2
    40    21    22    1
    41    22    23    2
    42    22    41    1
    43    23    24    1
    44    23    42    1
    45    25    43    1
    46    25    44    1
@<TRIPOS>SUBSTRUCTURE
     1 ZINC000179743483        1 TEMP              0 ****  ****    0 ROOT


##########                                Name:    ZINC000163855860
##########                DOCK_Rotatable_Bonds:                   6
##########                         Heavy_Atoms:                  28
##########                    Molecular_Weight:             398.483
##########                DOCK_Rotatable_Bonds:                   6
##########                       Formal_Charge:          -0.0100004
##########                     HBond_Acceptors:                   7
##########                        HBond_Donors:                   1
##########                         Heavy_Atoms:                  28
##########                          Grid_Score:          -27.018921
##########                     Grid_vdw_energy:          -24.470844
##########                      Grid_es_energy:           -2.548077
##########           Internal_energy_repulsive:           14.071173

@<TRIPOS>MOLECULE
ZINC000163855860
 50 53 1 0 0
SMALL
USER_CHARGES


@<TRIPOS>ATOM
      1 C1         -8.3191    1.2154   58.6931 C.3     1  ZINC000163855860   -0.1300
      2 C2         -9.5526    1.9768   58.2806 C.ar    1  ZINC000163855860   -0.0600
      3 C3        -10.1740    2.8319   59.1771 C.ar    1  ZINC000163855860    0.1400
      4 N4         -9.6558    2.9898   60.4675 N.am    1  ZINC000163855860   -0.6700
      5 C5        -10.1952    2.3094   61.4984 C.2     1  ZINC000163855860    0.5100
      6 O6        -11.1297    1.5602   61.3076 O.2     1  ZINC000163855860   -0.5100
      7 C7         -9.6372    2.4796   62.8878 C.3     1  ZINC000163855860   -0.1300
      8 C8         -9.8398    1.1867   63.6806 C.3     1  ZINC000163855860   -0.1100
      9 H9        -10.8679    0.8348   63.5952 H       1  ZINC000163855860    0.1100
     10 C10        -8.8448    0.0971   63.2205 C.3     1  ZINC000163855860    0.0600
     11 O11        -8.5241   -0.6398   64.4374 O.3     1  ZINC000163855860   -0.3500
     12 C12        -8.5939    0.1775   65.4978 C.2     1  ZINC000163855860    0.4800
     13 O13        -8.0569   -0.0181   66.5623 O.2     1  ZINC000163855860   -0.4500
     14 C14        -9.4462    1.3820   65.1617 C.3     1  ZINC000163855860   -0.1800
     15 C15       -11.3084    3.5370   58.7926 C.ar    1  ZINC000163855860   -0.1100
     16 C16       -11.8235    3.3852   57.5191 C.ar    1  ZINC000163855860   -0.1100
     17 C17       -11.2149    2.5325   56.6205 C.ar    1  ZINC000163855860   -0.1000
     18 C18       -10.0755    1.8195   56.9971 C.ar    1  ZINC000163855860   -0.1100
     19 C19        -9.4211    0.9057   56.0363 C.2     1  ZINC000163855860    0.5700
     20 O20        -9.7157   -0.2735   56.0220 O.2     1  ZINC000163855860   -0.5300
     21 N21        -8.4983    1.3802   55.1764 N.am    1  ZINC000163855860   -0.6100
     22 C22        -7.8356    0.4885   54.2127 C.3     1  ZINC000163855860    0.1200
     23 C23        -8.2417    0.9220   52.7954 C.3     1  ZINC000163855860   -0.0600
     24 C24        -8.1316    2.4282   52.6889 C.2     1  ZINC000163855860   -0.1700
     25 C25        -8.0831    3.2768   53.7331 C.2     1  ZINC000163855860   -0.1300
     26 C26        -7.9929    4.6155   53.3652 C.2     1  ZINC000163855860   -0.1200
     27 C27        -7.9637    4.8521   52.0576 C.2     1  ZINC000163855860   -0.2100
     28 S28        -8.0542    3.3316   51.1814 S.3     1  ZINC000163855860    0.1100
     29 C29        -8.1232    2.8013   55.1809 C.3     1  ZINC000163855860    0.1700
     30 H30        -8.6043    0.2221   59.0399 H       1  ZINC000163855860    0.0700
     31 H31        -7.6469    1.1232   57.8400 H       1  ZINC000163855860    0.0900
     32 H32        -7.8142    1.7501   59.4975 H       1  ZINC000163855860    0.0700
     33 H33        -8.9083    3.5890   60.6200 H       1  ZINC000163855860    0.4100
     34 H34       -10.1539    3.2980   63.3892 H       1  ZINC000163855860    0.1100
     35 H35        -8.5726    2.7052   62.8267 H       1  ZINC000163855860    0.1100
     36 H36        -7.9467    0.5531   62.8038 H       1  ZINC000163855860    0.0800
     37 H37        -9.3129   -0.5616   62.4890 H       1  ZINC000163855860    0.1200
     38 H38       -10.3359    1.4046   65.7909 H       1  ZINC000163855860    0.1200
     39 H39        -8.8709    2.2998   65.2836 H       1  ZINC000163855860    0.1200
     40 H40       -11.7888    4.2059   59.4912 H       1  ZINC000163855860    0.1500
     41 H41       -12.7050    3.9360   57.2260 H       1  ZINC000163855860    0.1300
     42 H42       -11.6204    2.4166   55.6263 H       1  ZINC000163855860    0.1300
     43 H43        -6.7543    0.5662   54.3259 H       1  ZINC000163855860    0.0800
     44 H44        -8.1517   -0.5399   54.3883 H       1  ZINC000163855860    0.1000
     45 H45        -9.2696    0.6168   52.5994 H       1  ZINC000163855860    0.0900
     46 H46        -7.5778    0.4556   52.0675 H       1  ZINC000163855860    0.0900
     47 H47        -7.9497    5.4107   54.0947 H       1  ZINC000163855860    0.1400
     48 H48        -7.8942    5.8294   51.6030 H       1  ZINC000163855860    0.1700
     49 H49        -8.8628    3.3764   55.7381 H       1  ZINC000163855860    0.1000
     50 H50        -7.1410    2.9225   55.6377 H       1  ZINC000163855860    0.0900
@<TRIPOS>BOND
     1     1     2    1
     2     1    30    1
     3     1    31    1
     4     1    32    1
     5     2    18   ar
     6     2     3   ar
     7     3     4    1
     8     3    15   ar
     9     4     5   am
    10     4    33    1
    11     5     6    2
    12     5     7    1
    13     7     8    1
    14     7    34    1
    15     7    35    1
    16     8     9    1
    17     8    14    1
    18     8    10    1
    19    10    11    1
    20    10    36    1
    21    10    37    1
    22    11    12    1
    23    12    13    2
    24    12    14    1
    25    14    38    1
    26    14    39    1
    27    15    16   ar
    28    15    40    1
    29    16    17   ar
    30    16    41    1
    31    17    18   ar
    32    17    42    1
    33    18    19    1
    34    19    20    2
    35    19    21   am
    36    21    29    1
    37    21    22    1
    38    22    23    1
    39    22    43    1
    40    22    44    1
    41    23    24    1
    42    23    45    1
    43    23    46    1
    44    24    28    1
    45    24    25    2
    46    25    26    1
    47    25    29    1
    48    26    27    2
    49    26    47    1
    50    27    28    1
    51    27    48    1
    52    29    49    1
    53    29    50    1
@<TRIPOS>SUBSTRUCTURE
     1 ZINC000163855860        1 TEMP              0 ****  ****    0 ROOT


##########                                Name:    ZINC000443933644
##########                DOCK_Rotatable_Bonds:                   8
##########                         Heavy_Atoms:                  27
##########                    Molecular_Weight:             402.438
##########                DOCK_Rotatable_Bonds:                   8
##########                       Formal_Charge:          0.00999922
##########                     HBond_Acceptors:                   9
##########                        HBond_Donors:                   2
##########                         Heavy_Atoms:                  27
##########                          Grid_Score:          -26.993132
##########                     Grid_vdw_energy:          -24.852240
##########                      Grid_es_energy:           -2.140891
##########           Internal_energy_repulsive:           35.889328

@<TRIPOS>MOLECULE
ZINC000443933644
 48 49 1 0 0
SMALL
USER_CHARGES


@<TRIPOS>ATOM
      1 C1         -9.0679    0.4224   64.4444 C.3     1  ZINC000443933644   -0.1500
      2 C2         -9.0695    0.8488   62.9750 C.3     1  ZINC000443933644   -0.1400
      3 C3        -10.3808    1.5689   62.6545 C.3     1  ZINC000443933644   -0.1000
      4 H4        -10.4759    2.4501   63.2889 H       1  ZINC000443933644    0.1000
      5 C5        -11.5572    0.6253   62.9125 C.3     1  ZINC000443933644   -0.1700
      6 C6        -10.3822    1.9959   61.1852 C.3     1  ZINC000443933644    0.1200
      7 H7        -11.1225    1.4123   60.6379 H       1  ZINC000443933644    0.1300
      8 N8         -9.0553    1.7656   60.6085 N.am    1  ZINC000443933644   -1.1100
      9 S9         -8.8937    1.5033   58.9815 S.o2    1  ZINC000443933644    2.6900
     10 O10        -9.5398    2.5907   58.3336 O.2     1  ZINC000443933644   -0.9400
     11 O11        -7.5306    1.1670   58.7626 O.2     1  ZINC000443933644   -0.9400
     12 C12        -9.8306    0.0632   58.5897 C.ar    1  ZINC000443933644   -0.7000
     13 C13       -10.0393   -0.2960   57.2475 C.ar    1  ZINC000443933644    0.0500
     14 C14        -9.5121    0.4749   56.1968 C.ar    1  ZINC000443933644   -0.1400
     15 C15        -9.7332    0.0978   54.9079 C.ar    1  ZINC000443933644   -0.0800
     16 C16       -10.4761   -1.0434   54.6120 C.ar    1  ZINC000443933644   -0.1200
     17 C17       -11.0022   -1.8135   55.6039 C.ar    1  ZINC000443933644   -0.0900
     18 C18       -10.7944   -1.4561   56.9454 C.ar    1  ZINC000443933644   -0.0900
     19 C19       -11.3241   -2.2298   57.9999 C.ar    1  ZINC000443933644    0.2300
     20 N20       -12.0716   -3.3766   57.7254 N.am    1  ZINC000443933644   -0.6700
     21 C21       -13.4177   -3.3306   57.7712 C.2     1  ZINC000443933644    0.5100
     22 C22       -14.2245   -4.5685   57.4750 C.3     1  ZINC000443933644   -0.1700
     23 O23       -13.9798   -2.2928   58.0509 O.2     1  ZINC000443933644   -0.5100
     24 C24       -11.0966   -1.8434   59.3031 C.ar    1  ZINC000443933644   -0.1600
     25 C25       -10.3479   -0.7054   59.5875 C.ar    1  ZINC000443933644    0.0400
     26 C26       -10.7302    3.4825   61.0864 C.3     1  ZINC000443933644    0.4300
     27 F27       -11.2572    3.7550   59.8195 F       1  ZINC000443933644   -0.1700
     28 F28       -11.6766    3.8060   62.0646 F       1  ZINC000443933644   -0.1600
     29 F29        -9.5748    4.2460   61.2849 F       1  ZINC000443933644   -0.1700
     30 H30        -9.1628    1.3038   65.0786 H       1  ZINC000443933644    0.0500
     31 H31        -9.9060   -0.2497   64.6286 H       1  ZINC000443933644    0.0600
     32 H32        -8.1337   -0.0907   64.6728 H       1  ZINC000443933644    0.0600
     33 H33        -8.2314    1.5209   62.7908 H       1  ZINC000443933644    0.0700
     34 H34        -8.9746   -0.0326   62.3408 H       1  ZINC000443933644    0.0900
     35 H35       -11.6262    0.4140   63.9796 H       1  ZINC000443933644    0.0700
     36 H36       -12.4809    1.0952   62.5746 H       1  ZINC000443933644    0.0600
     37 H37       -11.4026   -0.3056   62.3670 H       1  ZINC000443933644    0.0700
     38 H38        -8.2713    1.7668   61.1798 H       1  ZINC000443933644    0.4300
     39 H39        -8.9347    1.3621   56.4113 H       1  ZINC000443933644    0.1400
     40 H40        -9.3273    0.6921   54.1026 H       1  ZINC000443933644    0.1300
     41 H41       -10.6372   -1.3208   53.5808 H       1  ZINC000443933644    0.1300
     42 H42       -11.5765   -2.6950   55.3599 H       1  ZINC000443933644    0.1300
     43 H43       -11.6219   -4.2065   57.5019 H       1  ZINC000443933644    0.4200
     44 H44       -13.5514   -5.3948   57.2467 H       1  ZINC000443933644    0.0800
     45 H45       -14.8311   -4.8233   58.3440 H       1  ZINC000443933644    0.1000
     46 H46       -14.8746   -4.3824   56.6201 H       1  ZINC000443933644    0.1000
     47 H47       -11.5004   -2.4330   60.1129 H       1  ZINC000443933644    0.1500
     48 H48       -10.1826   -0.4218   60.6165 H       1  ZINC000443933644    0.1500
@<TRIPOS>BOND
     1     1     2    1
     2     1    30    1
     3     1    31    1
     4     1    32    1
     5     2     3    1
     6     2    33    1
     7     2    34    1
     8     3     4    1
     9     3     5    1
    10     3     6    1
    11     5    35    1
    12     5    36    1
    13     5    37    1
    14     6     7    1
    15     6     8    1
    16     6    26    1
    17     8     9   am
    18     8    38    1
    19     9    10    2
    20     9    11    2
    21     9    12    1
    22    12    25   ar
    23    12    13   ar
    24    13    18   ar
    25    13    14   ar
    26    14    15   ar
    27    14    39    1
    28    15    16   ar
    29    15    40    1
    30    16    17   ar
    31    16    41    1
    32    17    18   ar
    33    17    42    1
    34    18    19   ar
    35    19    20    1
    36    19    24   ar
    37    20    21   am
    38    20    43    1
    39    21    22    1
    40    21    23    2
    41    22    44    1
    42    22    45    1
    43    22    46    1
    44    24    25   ar
    45    24    47    1
    46    25    48    1
    47    26    27    1
    48    26    28    1
    49    26    29    1
@<TRIPOS>SUBSTRUCTURE
     1 ZINC000443933644        1 TEMP              0 ****  ****    0 ROOT


##########                                Name:    ZINC000426607143
##########                DOCK_Rotatable_Bonds:                   3
##########                         Heavy_Atoms:                  25
##########                    Molecular_Weight:             419.302
##########                DOCK_Rotatable_Bonds:                   3
##########                       Formal_Charge:         1.49012e-07
##########                     HBond_Acceptors:                   7
##########                        HBond_Donors:                   0
##########                         Heavy_Atoms:                  25
##########                          Grid_Score:          -26.993069
##########                     Grid_vdw_energy:          -28.537498
##########                      Grid_es_energy:            1.544430
##########           Internal_energy_repulsive:           10.628693

@<TRIPOS>MOLECULE
ZINC000426607143
 40 43 1 0 0
SMALL
USER_CHARGES


@<TRIPOS>ATOM
      1 C1         -8.3195   -0.2190   66.3922 C.3     1  ZINC000426607143   -0.0900
      2 C2         -8.5551    1.2630   66.2537 C.2     1  ZINC000426607143    0.1600
      3 N3         -8.4003    2.0725   67.2562 N.2     1  ZINC000426607143   -0.4600
      4 S4         -8.7549    3.6370   66.7079 S.3     1  ZINC000426607143    0.2900
      5 C5         -9.1188    3.1791   65.0901 C.2     1  ZINC000426607143   -0.1300
      6 C6         -9.5373    4.0822   63.9585 C.3     1  ZINC000426607143   -0.0800
      7 C7         -8.9427    1.8280   65.0460 C.2     1  ZINC000426607143   -0.1200
      8 C8         -9.1563    1.0284   63.8152 C.2     1  ZINC000426607143    0.2500
      9 N9         -8.3520    0.1167   63.3319 N.2     1  ZINC000426607143   -0.3700
     10 O10        -8.8167   -0.3514   62.3140 O.3     1  ZINC000426607143    0.0900
     11 C11        -9.9901    0.2264   62.0381 C.2     1  ZINC000426607143    0.2000
     12 C12       -10.8819   -0.0758   60.8616 C.3     1  ZINC000426607143   -0.0300
     13 H13       -11.6093   -0.8442   61.1229 H       1  ZINC000426607143    0.1600
     14 C14       -11.5989    1.2076   60.3822 C.3     1  ZINC000426607143   -0.1200
     15 C15       -11.6197    1.0036   58.8511 C.3     1  ZINC000426607143    0.1000
     16 N16       -10.4879    0.1160   58.5589 N.am    1  ZINC000426607143   -0.5800
     17 C17        -9.9292   -0.0589   57.2877 C.ar    1  ZINC000426607143    0.1700
     18 C18        -8.9413    0.8059   56.8370 C.ar    1  ZINC000426607143   -0.1000
     19 C19        -8.3916    0.6307   55.5816 C.ar    1  ZINC000426607143   -0.1000
     20 C20        -8.8247   -0.4043   54.7737 C.ar    1  ZINC000426607143   -0.1000
     21 C21        -9.8087   -1.2679   55.2191 C.ar    1  ZINC000426607143   -0.0900
     22 C22       -10.3582   -1.1021   56.4759 C.ar    1  ZINC000426607143   -0.0800
     23 Br23      -11.7038   -2.2833   57.0842 Br      1  ZINC000426607143   -0.0400
     24 C24       -10.0572   -0.5107   59.6701 C.2     1  ZINC000426607143    0.5300
     25 O25        -9.1403   -1.3038   59.7093 O.2     1  ZINC000426607143   -0.4900
     26 N26       -10.2217    1.1010   62.9852 N.2     1  ZINC000426607143   -0.4600
     27 H27        -7.2760   -0.4433   66.1713 H       1  ZINC000426607143    0.0900
     28 H28        -8.5500   -0.5299   67.4112 H       1  ZINC000426607143    0.0800
     29 H29        -8.9621   -0.7559   65.6944 H       1  ZINC000426607143    0.1100
     30 H30        -9.5827    5.1119   64.3131 H       1  ZINC000426607143    0.0800
     31 H31        -8.8125    4.0087   63.1479 H       1  ZINC000426607143    0.0900
     32 H32       -10.5197    3.7791   63.5963 H       1  ZINC000426607143    0.0900
     33 H33       -12.6113    1.2614   60.7824 H       1  ZINC000426607143    0.1100
     34 H34       -11.0276    2.0966   60.6496 H       1  ZINC000426607143    0.1000
     35 H35       -12.5552    0.5349   58.5457 H       1  ZINC000426607143    0.0900
     36 H36       -11.4914    1.9586   58.3415 H       1  ZINC000426607143    0.0900
     37 H37        -8.6028    1.6151   57.4670 H       1  ZINC000426607143    0.1400
     38 H38        -7.6231    1.3034   55.2308 H       1  ZINC000426607143    0.1400
     39 H39        -8.3938   -0.5383   53.7925 H       1  ZINC000426607143    0.1400
     40 H40       -10.1448   -2.0755   54.5855 H       1  ZINC000426607143    0.1400
@<TRIPOS>BOND
     1     1     2    1
     2     1    27    1
     3     1    28    1
     4     1    29    1
     5     2     7    1
     6     2     3    2
     7     3     4    1
     8     4     5    1
     9     5     6    1
    10     5     7    2
    11     6    30    1
    12     6    31    1
    13     6    32    1
    14     7     8    1
    15     8    26    1
    16     8     9    2
    17     9    10    1
    18    10    11    1
    19    11    12    1
    20    11    26    2
    21    12    13    1
    22    12    24    1
    23    12    14    1
    24    14    15    1
    25    14    33    1
    26    14    34    1
    27    15    16    1
    28    15    35    1
    29    15    36    1
    30    16    17    1
    31    16    24   am
    32    17    22   ar
    33    17    18   ar
    34    18    19   ar
    35    18    37    1
    36    19    20   ar
    37    19    38    1
    38    20    21   ar
    39    20    39    1
    40    21    22   ar
    41    21    40    1
    42    22    23    1
    43    24    25    2
@<TRIPOS>SUBSTRUCTURE
     1 ZINC000426607143        1 TEMP              0 ****  ****    0 ROOT


##########                                Name:    ZINC000371438955
##########                DOCK_Rotatable_Bonds:                   4
##########                         Heavy_Atoms:                  25
##########                    Molecular_Weight:             387.499
##########                DOCK_Rotatable_Bonds:                   4
##########                       Formal_Charge:          -0.0299995
##########                     HBond_Acceptors:                   9
##########                        HBond_Donors:                   1
##########                         Heavy_Atoms:                  25
##########                          Grid_Score:          -26.991814
##########                     Grid_vdw_energy:          -26.551079
##########                      Grid_es_energy:           -0.440735
##########           Internal_energy_repulsive:           20.518650

@<TRIPOS>MOLECULE
ZINC000371438955
 47 49 1 0 0
SMALL
USER_CHARGES


@<TRIPOS>ATOM
      1 C1         -6.6902    2.8305   52.7014 C.3     1  ZINC000371438955   -0.6800
      2 S2         -7.4249    1.4901   53.6782 S.o2    1  ZINC000371438955    2.6000
      3 O3         -6.5397    0.3806   53.7473 O.2     1  ZINC000371438955   -0.9500
      4 O4         -8.0444    2.0071   54.8478 O.2     1  ZINC000371438955   -0.9500
      5 N5         -8.6870    0.9484   52.7529 N.am    1  ZINC000371438955   -0.9900
      6 C6         -9.7381    1.8624   52.4093 C.3     1  ZINC000371438955    0.1300
      7 C7        -10.7672    1.8531   53.5521 C.3     1  ZINC000371438955   -0.1700
      8 C8        -11.6442    0.6733   53.4893 C.3     1  ZINC000371438955    0.1400
      9 N9        -10.8401   -0.5703   53.5489 N.am    1  ZINC000371438955   -0.6200
     10 C10       -10.7692   -1.2717   54.6976 C.2     1  ZINC000371438955    0.7100
     11 O11       -10.1097   -2.2920   54.7472 O.2     1  ZINC000371438955   -0.5800
     12 N12       -11.4293   -0.8422   55.7913 N.am    1  ZINC000371438955   -0.7400
     13 C13       -11.3523   -1.6047   57.0399 C.3     1  ZINC000371438955    0.2000
     14 H14       -10.7032   -2.4661   56.8822 H       1  ZINC000371438955    0.1100
     15 C15       -12.7433   -2.1022   57.3923 C.3     1  ZINC000371438955   -0.1300
     16 C16       -12.6640   -2.9367   58.6784 C.3     1  ZINC000371438955   -0.1100
     17 S17       -12.3827   -1.7849   60.0540 S.3     1  ZINC000371438955   -0.1000
     18 C18       -11.0982   -0.7472   59.4318 C.ar    1  ZINC000371438955   -0.1100
     19 C19       -10.4345    0.0818   60.3407 C.ar    1  ZINC000371438955    0.1100
     20 F20       -10.7818    0.0576   61.6461 F       1  ZINC000371438955   -0.1300
     21 C21        -9.4277    0.9241   59.9168 C.ar    1  ZINC000371438955   -0.1300
     22 C22        -9.0778    0.9474   58.5787 C.ar    1  ZINC000371438955   -0.1000
     23 C23        -9.7286    0.1290   57.6816 C.ar    1  ZINC000371438955   -0.1000
     24 C24       -10.7440   -0.7324   58.0985 C.ar    1  ZINC000371438955   -0.0800
     25 C25       -10.1367   -1.0287   52.3837 C.3     1  ZINC000371438955    0.1000
     26 C26        -8.6913   -0.4693   52.2995 C.3     1  ZINC000371438955    0.0900
     27 H27        -6.3526    2.4382   51.7422 H       1  ZINC000371438955    0.1300
     28 H28        -7.4351    3.6085   52.5339 H       1  ZINC000371438955    0.1300
     29 H29        -5.8415    3.2505   53.2413 H       1  ZINC000371438955    0.1300
     30 H30        -9.3295    2.8659   52.2894 H       1  ZINC000371438955    0.0800
     31 H31       -10.2143    1.5446   51.4818 H       1  ZINC000371438955    0.0800
     32 H32       -10.2391    1.8525   54.5055 H       1  ZINC000371438955    0.0800
     33 H33       -11.3782    2.7535   53.4869 H       1  ZINC000371438955    0.0900
     34 H34       -12.3383    0.6947   54.3294 H       1  ZINC000371438955    0.0900
     35 H35       -12.2093    0.6931   52.5574 H       1  ZINC000371438955    0.0700
     36 H36       -11.9554   -0.0283   55.7518 H       1  ZINC000371438955    0.4000
     37 H37       -13.4061   -1.2513   57.5499 H       1  ZINC000371438955    0.0900
     38 H38       -13.1266   -2.7196   56.5799 H       1  ZINC000371438955    0.1000
     39 H39       -13.6001   -3.4740   58.8302 H       1  ZINC000371438955    0.1200
     40 H40       -11.8366   -3.6434   58.6115 H       1  ZINC000371438955    0.1000
     41 H41        -8.9170    1.5607   60.6240 H       1  ZINC000371438955    0.1400
     42 H42        -8.2944    1.6076   58.2371 H       1  ZINC000371438955    0.1300
     43 H43        -9.4492    0.1559   56.6388 H       1  ZINC000371438955    0.1400
     44 H44       -10.0930   -2.1177   52.4039 H       1  ZINC000371438955    0.0800
     45 H45       -10.6851   -0.7162   51.4951 H       1  ZINC000371438955    0.0900
     46 H46        -8.3380   -0.5288   51.2701 H       1  ZINC000371438955    0.0800
     47 H47        -8.0363   -1.0563   52.9433 H       1  ZINC000371438955    0.1000
@<TRIPOS>BOND
     1     1     2    1
     2     1    27    1
     3     1    28    1
     4     1    29    1
     5     2     3    2
     6     2     4    2
     7     2     5   am
     8     5    26    1
     9     5     6    1
    10     6     7    1
    11     6    30    1
    12     6    31    1
    13     7     8    1
    14     7    32    1
    15     7    33    1
    16     8     9    1
    17     8    34    1
    18     8    35    1
    19     9    10   am
    20     9    25    1
    21    10    11    2
    22    10    12   am
    23    12    13    1
    24    12    36    1
    25    13    14    1
    26    13    24    1
    27    13    15    1
    28    15    16    1
    29    15    37    1
    30    15    38    1
    31    16    17    1
    32    16    39    1
    33    16    40    1
    34    17    18    1
    35    18    24   ar
    36    18    19   ar
    37    19    20    1
    38    19    21   ar
    39    21    22   ar
    40    21    41    1
    41    22    23   ar
    42    22    42    1
    43    23    24   ar
    44    23    43    1
    45    25    26    1
    46    25    44    1
    47    25    45    1
    48    26    46    1
    49    26    47    1
@<TRIPOS>SUBSTRUCTURE
     1 ZINC000371438955        1 TEMP              0 ****  ****    0 ROOT


##########                                Name:    ZINC000929592477
##########                DOCK_Rotatable_Bonds:                   7
##########                         Heavy_Atoms:                  28
##########                    Molecular_Weight:             399.517
##########                DOCK_Rotatable_Bonds:                   7
##########                       Formal_Charge:         -8.9407e-08
##########                     HBond_Acceptors:                   8
##########                        HBond_Donors:                   3
##########                         Heavy_Atoms:                  28
##########                          Grid_Score:          -26.990757
##########                     Grid_vdw_energy:          -22.158398
##########                      Grid_es_energy:           -4.832358
##########           Internal_energy_repulsive:           10.326230

@<TRIPOS>MOLECULE
ZINC000929592477
 53 56 1 0 0
SMALL
USER_CHARGES


@<TRIPOS>ATOM
      1 O1         -9.3360    1.6231   56.7999 O.2     1  ZINC000929592477   -0.5700
      2 C2         -8.6563    2.5844   56.4957 C.2     1  ZINC000929592477    0.7100
      3 N3         -8.3835    3.5339   57.4125 N.am    1  ZINC000929592477   -0.6800
      4 C4         -8.8881    3.4162   58.7151 C.ar    1  ZINC000929592477    0.1600
      5 C5        -10.2585    3.3373   58.9242 C.ar    1  ZINC000929592477   -0.1300
      6 C6        -10.7558    3.2220   60.2068 C.ar    1  ZINC000929592477   -0.0800
      7 C7         -9.8848    3.1843   61.2886 C.ar    1  ZINC000929592477   -0.1000
      8 S8        -10.5188    3.0363   62.9259 S.3     1  ZINC000929592477   -0.1100
      9 C9         -9.1848    2.1762   63.8040 C.3     1  ZINC000929592477   -0.0800
     10 C10        -9.5734    1.9420   65.2849 C.3     1  ZINC000929592477   -0.1200
     11 C11        -8.6838    0.7391   65.6856 C.3     1  ZINC000929592477   -0.1200
     12 C12        -8.6731   -0.1582   64.4308 C.3     1  ZINC000929592477   -0.1200
     13 C13        -8.9916    0.7556   63.2343 C.3     1  ZINC000929592477   -0.1000
     14 C14        -8.5135    3.2627   61.0790 C.ar    1  ZINC000929592477   -0.1200
     15 C15        -8.0169    3.3729   59.7956 C.ar    1  ZINC000929592477   -0.1000
     16 N16        -8.1712    2.6975   55.2434 N.am    1  ZINC000929592477   -0.7300
     17 C17        -8.4678    1.6653   54.2469 C.3     1  ZINC000929592477    0.1500
     18 H18        -8.7519    0.7321   54.7331 H       1  ZINC000929592477    0.1200
     19 C19        -7.2540    1.4464   53.3055 C.3     1  ZINC000929592477   -0.1400
     20 C20        -7.4479    2.5889   52.2774 C.3     1  ZINC000929592477    0.1100
     21 N21        -8.9067    2.6820   52.0872 N.pl3   1  ZINC000929592477   -0.6000
     22 C22        -9.5417    3.1919   50.9732 C.2     1  ZINC000929592477    0.4600
     23 C23       -10.8623    2.8657   50.7129 C.2     1  ZINC000929592477   -0.4000
     24 C24       -11.4702    3.4049   49.5708 C.2     1  ZINC000929592477    0.5300
     25 O25       -12.6324    3.1444   49.3030 O.2     1  ZINC000929592477   -0.5500
     26 N26       -10.7463    4.2177   48.7730 N.am    1  ZINC000929592477   -0.6400
     27 C27        -9.4636    4.5011   49.0752 C.2     1  ZINC000929592477    0.4100
     28 N28        -8.8853    4.0118   50.1373 N.2     1  ZINC000929592477   -0.5700
     29 C29        -9.5767    2.1389   53.2837 C.3     1  ZINC000929592477    0.1100
     30 H30        -7.8379    4.2987   57.1709 H       1  ZINC000929592477    0.4100
     31 H31       -10.9355    3.3667   58.0833 H       1  ZINC000929592477    0.1300
     32 H32       -11.8217    3.1613   60.3694 H       1  ZINC000929592477    0.1300
     33 H33        -8.2568    2.7438   63.7362 H       1  ZINC000929592477    0.1000
     34 H34        -9.3353    2.8170   65.8897 H       1  ZINC000929592477    0.0700
     35 H35       -10.6297    1.6871   65.3715 H       1  ZINC000929592477    0.0800
     36 H36        -7.6742    1.0738   65.9238 H       1  ZINC000929592477    0.0700
     37 H37        -9.1198    0.2072   66.5312 H       1  ZINC000929592477    0.0700
     38 H38        -7.6896   -0.6105   64.3036 H       1  ZINC000929592477    0.0700
     39 H39        -9.4329   -0.9345   64.5203 H       1  ZINC000929592477    0.0700
     40 H40        -9.9060    0.4227   62.7433 H       1  ZINC000929592477    0.0700
     41 H41        -8.1627    0.7466   62.5266 H       1  ZINC000929592477    0.0800
     42 H42        -7.8361    3.2334   61.9196 H       1  ZINC000929592477    0.1300
     43 H43        -6.9510    3.4335   59.6325 H       1  ZINC000929592477    0.1400
     44 H44        -7.6257    3.4623   55.0018 H       1  ZINC000929592477    0.4000
     45 H45        -6.3145    1.5623   53.8459 H       1  ZINC000929592477    0.0900
     46 H46        -7.3065    0.4715   52.8208 H       1  ZINC000929592477    0.0900
     47 H47        -7.0562    3.5258   52.6732 H       1  ZINC000929592477    0.0700
     48 H48        -6.9578    2.3394   51.3362 H       1  ZINC000929592477    0.0800
     49 H49       -11.4106    2.2112   51.3742 H       1  ZINC000929592477    0.1500
     50 H50       -11.1508    4.5994   47.9782 H       1  ZINC000929592477    0.4200
     51 H51        -8.9015    5.1536   48.4235 H       1  ZINC000929592477    0.2100
     52 H52       -10.2117    1.2984   53.0036 H       1  ZINC000929592477    0.0900
     53 H53       -10.1751    2.9163   53.7586 H       1  ZINC000929592477    0.0800
@<TRIPOS>BOND
     1     1     2    2
     2     2     3   am
     3     2    16   am
     4     3     4    1
     5     3    30    1
     6     4    15   ar
     7     4     5   ar
     8     5     6   ar
     9     5    31    1
    10     6     7   ar
    11     6    32    1
    12     7     8    1
    13     7    14   ar
    14     8     9    1
    15     9    13    1
    16     9    10    1
    17     9    33    1
    18    10    11    1
    19    10    34    1
    20    10    35    1
    21    11    12    1
    22    11    36    1
    23    11    37    1
    24    12    13    1
    25    12    38    1
    26    12    39    1
    27    13    40    1
    28    13    41    1
    29    14    15   ar
    30    14    42    1
    31    15    43    1
    32    16    17    1
    33    16    44    1
    34    17    18    1
    35    17    29    1
    36    17    19    1
    37    19    20    1
    38    19    45    1
    39    19    46    1
    40    20    21    1
    41    20    47    1
    42    20    48    1
    43    21    22    1
    44    21    29    1
    45    22    28    1
    46    22    23    2
    47    23    24    1
    48    23    49    1
    49    24    25    2
    50    24    26   am
    51    26    27    1
    52    26    50    1
    53    27    28    2
    54    27    51    1
    55    29    52    1
    56    29    53    1
@<TRIPOS>SUBSTRUCTURE
     1 ZINC000929592477        1 TEMP              0 ****  ****    0 ROOT


##########                                Name:    ZINC001023407238
##########                DOCK_Rotatable_Bonds:                   7
##########                         Heavy_Atoms:                  25
##########                    Molecular_Weight:             349.387
##########                DOCK_Rotatable_Bonds:                   7
##########                       Formal_Charge:          -0.0300008
##########                     HBond_Acceptors:                   8
##########                        HBond_Donors:                   2
##########                         Heavy_Atoms:                  25
##########                          Grid_Score:          -26.980387
##########                     Grid_vdw_energy:          -25.856281
##########                      Grid_es_energy:           -1.124105
##########           Internal_energy_repulsive:           10.024773

@<TRIPOS>MOLECULE
ZINC001023407238
 48 50 1 0 0
SMALL
USER_CHARGES


@<TRIPOS>ATOM
      1 C1        -14.2572    0.3674   61.8671 C.3     1  ZINC001023407238   -0.0900
      2 C2        -12.8291    0.0270   61.5271 C.2     1  ZINC001023407238   -0.1100
      3 C3        -12.3973   -1.0611   60.7988 C.2     1  ZINC001023407238   -0.0500
      4 C4        -13.2460   -2.1031   60.2111 C.2     1  ZINC001023407238    0.6100
      5 O5        -13.7748   -2.9328   60.9273 O.2     1  ZINC001023407238   -0.5100
      6 N6        -13.4401   -2.1416   58.8780 N.am    1  ZINC001023407238   -0.6100
      7 C7        -14.2624   -3.1264   58.1599 C.3     1  ZINC001023407238    0.0800
      8 C8        -14.2111   -2.7606   56.6615 C.3     1  ZINC001023407238    0.0900
      9 H9        -13.4504   -3.3478   56.1470 H       1  ZINC001023407238    0.0800
     10 O10       -15.4897   -2.9473   56.0514 O.3     1  ZINC001023407238   -0.5500
     11 C11       -13.8232   -1.2585   56.6835 C.3     1  ZINC001023407238    0.1400
     12 H12       -14.6991   -0.6311   56.8486 H       1  ZINC001023407238    0.1200
     13 N13       -13.1321   -0.8764   55.4495 N.am    1  ZINC001023407238   -0.7200
     14 C14       -13.0688    0.4199   55.0863 C.2     1  ZINC001023407238    0.5200
     15 O15       -13.5852    1.2700   55.7803 O.2     1  ZINC001023407238   -0.5300
     16 C16       -12.3563    0.8131   53.8178 C.3     1  ZINC001023407238   -0.1300
     17 C17       -11.6679   -0.4146   53.2181 C.3     1  ZINC001023407238   -0.1100
     18 H18       -12.3410   -1.2721   53.2149 H       1  ZINC001023407238    0.1100
     19 C19       -11.1513   -0.1148   51.7925 C.3     1  ZINC001023407238    0.0600
     20 O20        -9.9127   -0.8773   51.6866 O.3     1  ZINC001023407238   -0.3500
     21 C21        -9.3333   -0.9764   52.8915 C.2     1  ZINC001023407238    0.4800
     22 O22        -8.1651   -1.2192   53.0826 O.2     1  ZINC001023407238   -0.4600
     23 C23       -10.3641   -0.7414   53.9798 C.3     1  ZINC001023407238   -0.1800
     24 C24       -12.8679   -1.1996   57.8988 C.3     1  ZINC001023407238    0.1000
     25 N25       -11.0246   -0.9913   60.7234 N.pl3   1  ZINC001023407238   -0.4200
     26 C26       -10.1566   -1.9521   60.0380 C.3     1  ZINC001023407238    0.0700
     27 C27       -10.6097    0.1142   61.3887 C.2     1  ZINC001023407238    0.0100
     28 C28       -11.6926    0.7587   61.8855 C.2     1  ZINC001023407238   -0.2000
     29 H29       -14.6783    0.9945   61.0812 H       1  ZINC001023407238    0.0600
     30 H30       -14.8394   -0.5504   61.9506 H       1  ZINC001023407238    0.0600
     31 H31       -14.2870    0.9041   62.8153 H       1  ZINC001023407238    0.0700
     32 H32       -13.8584   -4.1274   58.3111 H       1  ZINC001023407238    0.0800
     33 H33       -15.2911   -3.0815   58.5173 H       1  ZINC001023407238    0.0800
     34 H34       -15.4664   -2.9590   55.0848 H       1  ZINC001023407238    0.3900
     35 H35       -12.7201   -1.5564   54.8939 H       1  ZINC001023407238    0.4100
     36 H36       -13.0780    1.2100   53.1039 H       1  ZINC001023407238    0.1000
     37 H37       -11.6099    1.5752   54.0416 H       1  ZINC001023407238    0.1100
     38 H38       -11.8715   -0.4532   51.0477 H       1  ZINC001023407238    0.1200
     39 H39       -10.9535    0.9507   51.6755 H       1  ZINC001023407238    0.0800
     40 H40       -10.0705    0.1023   54.6045 H       1  ZINC001023407238    0.1100
     41 H41       -10.4871   -1.6388   54.5860 H       1  ZINC001023407238    0.1200
     42 H42       -12.8391   -0.1905   58.3102 H       1  ZINC001023407238    0.0900
     43 H43       -11.8671   -1.5215   57.6108 H       1  ZINC001023407238    0.0800
     44 H44        -9.9472   -1.5970   59.0289 H       1  ZINC001023407238    0.0800
     45 H45        -9.2214   -2.0540   60.5886 H       1  ZINC001023407238    0.0900
     46 H46       -10.6553   -2.9198   59.9864 H       1  ZINC001023407238    0.0800
     47 H47        -9.5836    0.4315   61.5012 H       1  ZINC001023407238    0.1700
     48 H48       -11.6800    1.6718   62.4622 H       1  ZINC001023407238    0.1400
@<TRIPOS>BOND
     1     1     2    1
     2     1    29    1
     3     1    30    1
     4     1    31    1
     5     2    28    1
     6     2     3    2
     7     3     4    1
     8     3    25    1
     9     4     5    2
    10     4     6   am
    11     6    24    1
    12     6     7    1
    13     7     8    1
    14     7    32    1
    15     7    33    1
    16     8     9    1
    17     8    10    1
    18     8    11    1
    19    10    34    1
    20    11    12    1
    21    11    13    1
    22    11    24    1
    23    13    14   am
    24    13    35    1
    25    14    15    2
    26    14    16    1
    27    16    17    1
    28    16    36    1
    29    16    37    1
    30    17    18    1
    31    17    23    1
    32    17    19    1
    33    19    20    1
    34    19    38    1
    35    19    39    1
    36    20    21    1
    37    21    22    2
    38    21    23    1
    39    23    40    1
    40    23    41    1
    41    24    42    1
    42    24    43    1
    43    25    26    1
    44    25    27    1
    45    26    44    1
    46    26    45    1
    47    26    46    1
    48    27    28    2
    49    27    47    1
    50    28    48    1
@<TRIPOS>SUBSTRUCTURE
     1 ZINC001023407238        1 TEMP              0 ****  ****    0 ROOT


##########                                Name:    ZINC000439870054
##########                DOCK_Rotatable_Bonds:                   5
##########                         Heavy_Atoms:                  27
##########                    Molecular_Weight:             421.974
##########                DOCK_Rotatable_Bonds:                   5
##########                       Formal_Charge:           0.0200003
##########                     HBond_Acceptors:                   9
##########                        HBond_Donors:                   0
##########                         Heavy_Atoms:                  27
##########                          Grid_Score:          -26.961445
##########                     Grid_vdw_energy:          -26.026539
##########                      Grid_es_energy:           -0.934905
##########           Internal_energy_repulsive:           62.326107

@<TRIPOS>MOLECULE
ZINC000439870054
 47 50 1 0 0
SMALL
USER_CHARGES


@<TRIPOS>ATOM
      1 C1        -12.0011   -1.3419   58.6058 C.3     1  ZINC000439870054   -0.1400
      2 C2        -10.6373   -0.7534   58.2389 C.3     1  ZINC000439870054    0.0000
      3 C3         -9.5743   -1.2929   59.1982 C.3     1  ZINC000439870054   -0.1400
      4 C4        -10.2847   -1.1447   56.8270 C.2     1  ZINC000439870054    0.1900
      5 N5        -10.6486   -2.2394   56.2101 N.2     1  ZINC000439870054   -0.2900
      6 N6        -10.1659   -2.2466   55.0146 N.2     1  ZINC000439870054   -0.2700
      7 C7         -9.4767   -1.1649   54.8211 C.2     1  ZINC000439870054    0.1600
      8 C8         -8.7182   -0.7374   53.5877 C.3     1  ZINC000439870054    0.2400
      9 H9         -7.8297   -1.3566   53.4641 H       1  ZINC000439870054    0.1100
     10 C10        -9.6153   -0.8601   52.3544 C.3     1  ZINC000439870054   -0.1300
     11 N11        -8.3267    0.6705   53.7896 N.am    1  ZINC000439870054   -0.6300
     12 C12        -8.4447    1.5722   52.7950 C.2     1  ZINC000439870054    0.5300
     13 O13        -8.8781    1.2304   51.7150 O.2     1  ZINC000439870054   -0.4900
     14 C14        -8.0383    3.0050   53.0247 C.3     1  ZINC000439870054   -0.0700
     15 C15        -8.0875    3.7566   51.7194 C.2     1  ZINC000439870054    0.0900
     16 C16        -7.2247    3.5140   50.7284 C.2     1  ZINC000439870054   -0.2400
     17 S17        -7.6088    4.5887   49.3854 S.3     1  ZINC000439870054    0.1300
     18 C18        -8.9327    5.2780   50.3213 C.2     1  ZINC000439870054    0.1400
     19 C19        -9.8377    6.3436   49.8637 C.2     1  ZINC000439870054   -0.1300
     20 C20       -10.8473    6.8739   50.5877 C.2     1  ZINC000439870054   -0.1000
     21 C21       -11.5588    7.8635   49.9446 C.2     1  ZINC000439870054   -0.1200
     22 C22       -11.1418    8.1471   48.7047 C.2     1  ZINC000439870054   -0.1500
     23 Cl23      -11.8469    9.3437   47.6631 Cl      1  ZINC000439870054    0.0000
     24 S24        -9.7678    7.1300   48.2919 S.3     1  ZINC000439870054    0.2500
     25 N25        -8.9848    4.6871   51.4837 N.2     1  ZINC000439870054   -0.4400
     26 C26        -7.8042    1.0623   55.1076 C.3     1  ZINC000439870054    0.0900
     27 C27        -8.8993    0.8688   56.1631 C.3     1  ZINC000439870054    0.0900
     28 N28        -9.5400   -0.4298   55.9603 N.pl3   1  ZINC000439870054   -0.4700
     29 H29       -12.2561   -1.0589   59.6271 H       1  ZINC000439870054    0.0700
     30 H30       -12.7584   -0.9576   57.9224 H       1  ZINC000439870054    0.0500
     31 H31       -11.9604   -2.4284   58.5293 H       1  ZINC000439870054    0.0700
     32 H32       -10.6779    0.3331   58.3155 H       1  ZINC000439870054    0.0800
     33 H33        -8.6027   -0.8737   58.9369 H       1  ZINC000439870054    0.0500
     34 H34        -9.8293   -1.0099   60.2195 H       1  ZINC000439870054    0.0700
     35 H35        -9.5337   -2.3794   59.1217 H       1  ZINC000439870054    0.0700
     36 H36       -10.4119   -0.1182   52.4093 H       1  ZINC000439870054    0.0600
     37 H37        -9.0224   -0.6907   51.4555 H       1  ZINC000439870054    0.0900
     38 H38       -10.0506   -1.8588   52.3196 H       1  ZINC000439870054    0.0700
     39 H39        -8.7227    3.4673   53.7360 H       1  ZINC000439870054    0.1100
     40 H40        -7.0244    3.0356   53.4235 H       1  ZINC000439870054    0.1200
     41 H41        -6.4282    2.7848   50.7474 H       1  ZINC000439870054    0.1800
     42 H42       -11.0790    6.5478   51.5909 H       1  ZINC000439870054    0.1500
     43 H43       -12.3917    8.3725   50.4067 H       1  ZINC000439870054    0.1600
     44 H44        -6.9440    0.4413   55.3574 H       1  ZINC000439870054    0.0900
     45 H45        -7.5032    2.1096   55.0830 H       1  ZINC000439870054    0.1200
     46 H46        -8.4566    0.9077   57.1585 H       1  ZINC000439870054    0.1100
     47 H47        -9.6445    1.6582   56.0639 H       1  ZINC000439870054    0.0900
@<TRIPOS>BOND
     1     1     2    1
     2     1    29    1
     3     1    30    1
     4     1    31    1
     5     2     3    1
     6     2     4    1
     7     2    32    1
     8     3    33    1
     9     3    34    1
    10     3    35    1
    11     4    28    1
    12     4     5    2
    13     5     6    1
    14     6     7    2
    15     7    28    1
    16     7     8    1
    17     8     9    1
    18     8    10    1
    19     8    11    1
    20    10    36    1
    21    10    37    1
    22    10    38    1
    23    11    12   am
    24    11    26    1
    25    12    13    2
    26    12    14    1
    27    14    15    1
    28    14    39    1
    29    14    40    1
    30    15    25    1
    31    15    16    2
    32    16    17    1
    33    16    41    1
    34    17    18    1
    35    18    19    1
    36    18    25    2
    37    19    24    1
    38    19    20    2
    39    20    21    1
    40    20    42    1
    41    21    22    2
    42    21    43    1
    43    22    23    1
    44    22    24    1
    45    26    27    1
    46    26    44    1
    47    26    45    1
    48    27    28    1
    49    27    46    1
    50    27    47    1
@<TRIPOS>SUBSTRUCTURE
     1 ZINC000439870054        1 TEMP              0 ****  ****    0 ROOT


##########                                Name:    ZINC000438893617
##########                DOCK_Rotatable_Bonds:                   5
##########                         Heavy_Atoms:                  29
##########                    Molecular_Weight:             412.596
##########                DOCK_Rotatable_Bonds:                   5
##########                       Formal_Charge:           0.0600001
##########                     HBond_Acceptors:                   5
##########                        HBond_Donors:                   0
##########                         Heavy_Atoms:                  29
##########                          Grid_Score:          -26.949999
##########                     Grid_vdw_energy:          -26.313826
##########                      Grid_es_energy:           -0.636173
##########           Internal_energy_repulsive:          167.265533

@<TRIPOS>MOLECULE
ZINC000438893617
 61 66 1 0 0
SMALL
USER_CHARGES


@<TRIPOS>ATOM
      1 C1         -5.8415    6.6007   50.5976 C.3     1  ZINC000438893617   -0.1000
      2 C2         -6.8375    5.8028   49.7963 C.2     1  ZINC000438893617   -0.0900
      3 C3         -7.4943    4.7584   50.3034 C.2     1  ZINC000438893617   -0.1600
      4 C4         -7.3438    4.2367   51.7092 C.3     1  ZINC000438893617   -0.0400
      5 H5         -6.7245    4.8418   52.3713 H       1  ZINC000438893617    0.1400
      6 C6         -7.3079    2.7190   51.8995 C.3     1  ZINC000438893617   -0.1400
      7 C7         -8.5432    3.5153   52.3271 C.3     1  ZINC000438893617   -0.1800
      8 H8         -9.4410    3.4177   51.7169 H       1  ZINC000438893617    0.1300
      9 C9         -8.7781    3.6948   53.8049 C.2     1  ZINC000438893617    0.5500
     10 O10        -8.4033    4.7059   54.3601 O.2     1  ZINC000438893617   -0.5300
     11 N11        -9.4047    2.7318   54.5095 N.am    1  ZINC000438893617   -0.6100
     12 C12        -9.8605    1.4997   53.8508 C.3     1  ZINC000438893617    0.0900
     13 C13        -9.2557    0.2978   54.5872 C.3     1  ZINC000438893617    0.1000
     14 N14        -9.4949    0.4609   56.0280 N.am    1  ZINC000438893617   -0.6100
     15 C15       -10.1207   -0.5025   56.7328 C.2     1  ZINC000438893617    0.5300
     16 O16       -10.4920   -1.5152   56.1783 O.2     1  ZINC000438893617   -0.5300
     17 C17       -10.3590   -0.3213   58.2098 C.3     1  ZINC000438893617   -0.0700
     18 C18        -9.0219   -0.0957   58.9183 C.3     1  ZINC000438893617   -0.1100
     19 C19        -9.2639    0.0883   60.4177 C.3     1  ZINC000438893617   -0.0800
     20 C20        -9.9359   -1.1645   60.9834 C.3     1  ZINC000438893617   -0.1100
     21 C21       -11.2730   -1.3899   60.2749 C.3     1  ZINC000438893617   -0.0800
     22 C22       -12.1803   -0.1787   60.5002 C.3     1  ZINC000438893617   -0.1100
     23 C23       -11.5083    1.0740   59.9346 C.3     1  ZINC000438893617   -0.0900
     24 C24       -10.1710    1.2996   60.6431 C.3     1  ZINC000438893617   -0.1100
     25 C25       -11.2662    0.8900   58.4351 C.3     1  ZINC000438893617   -0.0900
     26 C26       -11.0310   -1.5740   58.7755 C.3     1  ZINC000438893617   -0.1200
     27 C27        -9.0392    1.6931   56.6867 C.3     1  ZINC000438893617    0.0700
     28 C28        -9.6389    2.8925   55.9514 C.3     1  ZINC000438893617    0.1000
     29 S29        -8.5632    4.0835   49.0805 S.3     1  ZINC000438893617    0.1000
     30 C30        -8.0428    5.2935   47.9149 C.2     1  ZINC000438893617   -0.2100
     31 C31        -7.1446    6.1017   48.4800 C.2     1  ZINC000438893617   -0.1300
     32 H32        -6.3550    7.4158   51.1076 H       1  ZINC000438893617    0.0700
     33 H33        -5.3660    5.9534   51.3345 H       1  ZINC000438893617    0.0700
     34 H34        -5.0831    7.0102   49.9304 H       1  ZINC000438893617    0.0700
     35 H35        -7.3931    2.0979   51.0079 H       1  ZINC000438893617    0.1100
     36 H36        -6.6652    2.3256   52.6871 H       1  ZINC000438893617    0.1100
     37 H37       -10.9483    1.4440   53.8914 H       1  ZINC000438893617    0.0800
     38 H38        -9.5300    1.4963   52.8122 H       1  ZINC000438893617    0.1000
     39 H39        -9.7291   -0.6203   54.2394 H       1  ZINC000438893617    0.1100
     40 H40        -8.1833    0.2542   54.3971 H       1  ZINC000438893617    0.0700
     41 H41        -8.3756   -0.9587   58.7578 H       1  ZINC000438893617    0.0800
     42 H42        -8.5431    0.7968   58.5153 H       1  ZINC000438893617    0.0700
     43 H43        -8.3112    0.2488   60.9225 H       1  ZINC000438893617    0.0800
     44 H44        -9.2896   -2.0274   60.8229 H       1  ZINC000438893617    0.0600
     45 H45       -10.1082   -1.0334   62.0517 H       1  ZINC000438893617    0.0700
     46 H46       -11.7518   -2.2824   60.6779 H       1  ZINC000438893617    0.0800
     47 H47       -13.1329   -0.3393   59.9955 H       1  ZINC000438893617    0.0600
     48 H48       -12.3527   -0.0476   61.5685 H       1  ZINC000438893617    0.0700
     49 H49       -12.1545    1.9370   60.0951 H       1  ZINC000438893617    0.0700
     50 H50       -10.3434    1.4306   61.7114 H       1  ZINC000438893617    0.0700
     51 H51        -9.6923    2.1920   60.2401 H       1  ZINC000438893617    0.0600
     52 H52       -10.7874    1.7825   58.0321 H       1  ZINC000438893617    0.0700
     53 H53       -12.2189    0.7294   57.9302 H       1  ZINC000438893617    0.0700
     54 H54       -11.9837   -1.7346   58.2706 H       1  ZINC000438893617    0.0700
     55 H55       -10.3848   -2.4369   58.6149 H       1  ZINC000438893617    0.0800
     56 H56        -9.3696    1.6964   57.7253 H       1  ZINC000438893617    0.1300
     57 H57        -7.9513    1.7488   56.6461 H       1  ZINC000438893617    0.0800
     58 H58        -9.1648    3.8099   56.3003 H       1  ZINC000438893617    0.1100
     59 H59       -10.7117    2.9379   56.1396 H       1  ZINC000438893617    0.0700
     60 H60        -8.3993    5.3728   46.8986 H       1  ZINC000438893617    0.1700
     61 H61        -6.6856    6.9221   47.9484 H       1  ZINC000438893617    0.1400
@<TRIPOS>BOND
     1     1     2    1
     2     1    32    1
     3     1    33    1
     4     1    34    1
     5     2    31    1
     6     2     3    2
     7     3     4    1
     8     3    29    1
     9     4     5    1
    10     4     7    1
    11     4     6    1
    12     6     7    1
    13     6    35    1
    14     6    36    1
    15     7     8    1
    16     7     9    1
    17     9    10    2
    18     9    11   am
    19    11    28    1
    20    11    12    1
    21    12    13    1
    22    12    37    1
    23    12    38    1
    24    13    14    1
    25    13    39    1
    26    13    40    1
    27    14    15   am
    28    14    27    1
    29    15    16    2
    30    15    17    1
    31    17    25    1
    32    17    26    1
    33    17    18    1
    34    18    19    1
    35    18    41    1
    36    18    42    1
    37    19    24    1
    38    19    20    1
    39    19    43    1
    40    20    21    1
    41    20    44    1
    42    20    45    1
    43    21    22    1
    44    21    26    1
    45    21    46    1
    46    22    23    1
    47    22    47    1
    48    22    48    1
    49    23    24    1
    50    23    25    1
    51    23    49    1
    52    24    50    1
    53    24    51    1
    54    25    52    1
    55    25    53    1
    56    26    54    1
    57    26    55    1
    58    27    28    1
    59    27    56    1
    60    27    57    1
    61    28    58    1
    62    28    59    1
    63    29    30    1
    64    30    31    2
    65    30    60    1
    66    31    61    1
@<TRIPOS>SUBSTRUCTURE
     1 ZINC000438893617        1 TEMP              0 ****  ****    0 ROOT


##########                                Name:    ZINC000098105561
##########                DOCK_Rotatable_Bonds:                   5
##########                         Heavy_Atoms:                  25
##########                    Molecular_Weight:             368.336
##########                DOCK_Rotatable_Bonds:                   5
##########                       Formal_Charge:         2.98023e-08
##########                     HBond_Acceptors:                   9
##########                        HBond_Donors:                   0
##########                         Heavy_Atoms:                  25
##########                          Grid_Score:          -26.948336
##########                     Grid_vdw_energy:          -25.543522
##########                      Grid_es_energy:           -1.404813
##########           Internal_energy_repulsive:            8.411478

@<TRIPOS>MOLECULE
ZINC000098105561
 36 38 1 0 0
SMALL
USER_CHARGES


@<TRIPOS>ATOM
      1 C1         -6.6984    2.8128   56.8072 C.3     1  ZINC000098105561   -0.0800
      2 C2         -7.9311    2.2435   57.4609 C.2     1  ZINC000098105561    0.0900
      3 C3         -9.0491    2.9525   57.6334 C.2     1  ZINC000098105561   -0.2700
      4 S4        -10.2341    1.9188   58.4279 S.3     1  ZINC000098105561    0.1600
      5 C5         -9.1099    0.6310   58.4518 C.2     1  ZINC000098105561    0.2500
      6 N6         -9.3570   -0.6303   58.9755 N.am    1  ZINC000098105561   -0.5200
      7 C7         -8.8183   -0.9971   60.2875 C.3     1  ZINC000098105561    0.0500
      8 C8         -9.6388   -0.3155   61.3843 C.3     1  ZINC000098105561    0.4400
      9 F9         -9.0498    0.9099   61.7140 F       1  ZINC000098105561   -0.1700
     10 F10       -10.9421   -0.0977   60.9246 F       1  ZINC000098105561   -0.1700
     11 F11        -9.6750   -1.1353   62.5173 F       1  ZINC000098105561   -0.1700
     12 C12       -10.0926   -1.5178   58.2769 C.2     1  ZINC000098105561    0.5800
     13 O13       -10.3090   -2.6221   58.7355 O.2     1  ZINC000098105561   -0.4100
     14 C14       -10.6372   -1.1471   56.9505 C.2     1  ZINC000098105561    0.0800
     15 C15       -11.9819   -1.1500   56.7768 C.2     1  ZINC000098105561   -0.2000
     16 C16       -12.5136   -0.7960   55.4497 C.2     1  ZINC000098105561    0.4200
     17 O17       -13.6949   -0.5574   55.2701 O.2     1  ZINC000098105561   -0.4300
     18 C18       -11.5294   -0.7473   54.3497 C.ar    1  ZINC000098105561   -0.2200
     19 C19       -11.9296   -0.6789   53.0170 C.ar    1  ZINC000098105561   -0.0300
     20 C20       -10.9758   -0.6414   52.0232 C.ar    1  ZINC000098105561   -0.1400
     21 C21        -9.6271   -0.6724   52.3479 C.ar    1  ZINC000098105561   -0.0500
     22 C22        -9.2189   -0.7378   53.6626 C.ar    1  ZINC000098105561   -0.1400
     23 C23       -10.1636   -0.7728   54.6830 C.ar    1  ZINC000098105561    0.1400
     24 O24        -9.7804   -0.8176   55.9743 O.3     1  ZINC000098105561   -0.2300
     25 N25        -7.9946    1.0024   57.9041 N.2     1  ZINC000098105561   -0.4600
     26 H26        -6.7444    2.6395   55.7320 H       1  ZINC000098105561    0.0800
     27 H27        -6.6465    3.8842   57.0006 H       1  ZINC000098105561    0.0800
     28 H28        -5.8128    2.3264   57.2160 H       1  ZINC000098105561    0.0800
     29 H29        -9.2005    3.9801   57.3378 H       1  ZINC000098105561    0.1900
     30 H30        -8.8719   -2.0786   60.4128 H       1  ZINC000098105561    0.1700
     31 H31        -7.7796   -0.6743   60.3571 H       1  ZINC000098105561    0.1400
     32 H32       -12.6455   -1.4053   57.5897 H       1  ZINC000098105561    0.1800
     33 H33       -12.9794   -0.6558   52.7646 H       1  ZINC000098105561    0.1400
     34 H34       -11.2790   -0.5880   50.9879 H       1  ZINC000098105561    0.1400
     35 H35        -8.8881   -0.6455   51.5608 H       1  ZINC000098105561    0.1400
     36 H36        -8.1657   -0.7615   53.9008 H       1  ZINC000098105561    0.1400
@<TRIPOS>BOND
     1     1     2    1
     2     1    26    1
     3     1    27    1
     4     1    28    1
     5     2    25    1
     6     2     3    2
     7     3     4    1
     8     3    29    1
     9     4     5    1
    10     5     6    1
    11     5    25    2
    12     6     7    1
    13     6    12   am
    14     7     8    1
    15     7    30    1
    16     7    31    1
    17     8     9    1
    18     8    10    1
    19     8    11    1
    20    12    13    2
    21    12    14    1
    22    14    24    1
    23    14    15    2
    24    15    16    1
    25    15    32    1
    26    16    17    2
    27    16    18    1
    28    18    23   ar
    29    18    19   ar
    30    19    20   ar
    31    19    33    1
    32    20    21   ar
    33    20    34    1
    34    21    22   ar
    35    21    35    1
    36    22    23   ar
    37    22    36    1
    38    23    24    1
@<TRIPOS>SUBSTRUCTURE
     1 ZINC000098105561        1 TEMP              0 ****  ****    0 ROOT


##########                                Name:    ZINC000530457945
##########                DOCK_Rotatable_Bonds:                   4
##########                         Heavy_Atoms:                  25
##########                    Molecular_Weight:             355.827
##########                DOCK_Rotatable_Bonds:                   4
##########                       Formal_Charge:           0.0199997
##########                     HBond_Acceptors:                   7
##########                        HBond_Donors:                   1
##########                         Heavy_Atoms:                  25
##########                          Grid_Score:          -26.921907
##########                     Grid_vdw_energy:          -25.960836
##########                      Grid_es_energy:           -0.961070
##########           Internal_energy_repulsive:           32.204521

@<TRIPOS>MOLECULE
ZINC000530457945
 43 46 1 0 0
SMALL
USER_CHARGES


@<TRIPOS>ATOM
      1 C1         -8.6707    4.4882   52.0841 C.3     1  ZINC000530457945   -0.1700
      2 C2         -7.6190    3.3785   52.1424 C.3     1  ZINC000530457945    0.0900
      3 H3         -8.1004    2.4059   52.0407 H       1  ZINC000530457945    0.1100
      4 C4         -6.8552    3.4490   53.4815 C.3     1  ZINC000530457945   -0.1200
      5 H5         -6.9106    4.4519   53.9045 H       1  ZINC000530457945    0.1100
      6 C6         -7.3921    2.4317   54.4551 C.2     1  ZINC000530457945    0.5300
      7 O7         -7.4336    1.2597   54.1464 O.2     1  ZINC000530457945   -0.4700
      8 N8         -7.8263    2.8246   55.6691 N.am    1  ZINC000530457945   -0.6200
      9 C9         -8.3254    1.8822   56.5709 C.2     1  ZINC000530457945    0.4800
     10 N10        -9.1045    0.8670   56.2569 N.2     1  ZINC000530457945   -0.3000
     11 N11        -9.3743    0.1724   57.4447 N.pl3   1  ZINC000530457945   -0.2800
     12 C12       -10.1079   -0.9368   57.7249 C.2     1  ZINC000530457945    0.1400
     13 C13       -10.1983   -1.3998   58.9933 C.2     1  ZINC000530457945   -0.0800
     14 Cl14      -11.1402   -2.8181   59.3321 Cl      1  ZINC000530457945   -0.0200
     15 C15        -9.5323   -0.7368   60.0353 C.2     1  ZINC000530457945   -0.0500
     16 C16        -8.7946    0.3753   59.7622 C.2     1  ZINC000530457945   -0.0900
     17 C17        -8.7145    0.8396   58.4373 C.2     1  ZINC000530457945    0.3000
     18 N18        -8.0834    1.8673   57.8778 N.2     1  ZINC000530457945   -0.5500
     19 C19        -5.3988    3.1062   53.0716 C.3     1  ZINC000530457945   -0.1200
     20 C20        -5.3004    3.7744   51.6775 C.3     1  ZINC000530457945    0.0400
     21 N21        -6.6324    3.5652   51.0627 N.3     1  ZINC000530457945   -0.4900
     22 C22        -6.9818    4.6435   50.2465 C.ar    1  ZINC000530457945    0.1000
     23 C23        -7.5996    4.4189   49.0228 C.ar    1  ZINC000530457945   -0.1600
     24 C24        -7.9442    5.4874   48.2185 C.ar    1  ZINC000530457945   -0.1100
     25 C25        -7.6743    6.7798   48.6300 C.ar    1  ZINC000530457945   -0.1300
     26 C26        -7.0594    7.0069   49.8475 C.ar    1  ZINC000530457945   -0.1100
     27 C27        -6.7174    5.9433   50.6593 C.ar    1  ZINC000530457945   -0.1000
     28 H28        -9.1194    4.5116   51.0910 H       1  ZINC000530457945    0.0700
     29 H29        -9.4439    4.2954   52.8277 H       1  ZINC000530457945    0.0600
     30 H30        -8.1979    5.4481   52.2919 H       1  ZINC000530457945    0.0600
     31 H31        -7.7920    3.7619   55.9165 H       1  ZINC000530457945    0.4300
     32 H32       -10.6236   -1.4529   56.9286 H       1  ZINC000530457945    0.1800
     33 H33        -9.6044   -1.1058   61.0477 H       1  ZINC000530457945    0.1600
     34 H34        -8.2773    0.8953   60.5549 H       1  ZINC000530457945    0.1700
     35 H35        -4.6837    3.5461   53.7667 H       1  ZINC000530457945    0.0900
     36 H36        -5.2572    2.0278   52.9986 H       1  ZINC000530457945    0.0900
     37 H37        -5.0919    4.8393   51.7810 H       1  ZINC000530457945    0.0700
     38 H38        -4.5279    3.2919   51.0791 H       1  ZINC000530457945    0.0900
     39 H39        -7.8101    3.4098   48.7006 H       1  ZINC000530457945    0.1200
     40 H40        -8.4246    5.3135   47.2670 H       1  ZINC000530457945    0.1200
     41 H41        -7.9442    7.6136   47.9987 H       1  ZINC000530457945    0.1200
     42 H42        -6.8500    8.0175   50.1659 H       1  ZINC000530457945    0.1300
     43 H43        -6.2374    6.1214   51.6101 H       1  ZINC000530457945    0.1300
@<TRIPOS>BOND
     1     1     2    1
     2     1    28    1
     3     1    29    1
     4     1    30    1
     5     2     3    1
     6     2    21    1
     7     2     4    1
     8     4     5    1
     9     4     6    1
    10     4    19    1
    11     6     7    2
    12     6     8   am
    13     8     9    1
    14     8    31    1
    15     9    18    1
    16     9    10    2
    17    10    11    1
    18    11    17    1
    19    11    12    1
    20    12    13    2
    21    12    32    1
    22    13    14    1
    23    13    15    1
    24    15    16    2
    25    15    33    1
    26    16    17    1
    27    16    34    1
    28    17    18    2
    29    19    20    1
    30    19    35    1
    31    19    36    1
    32    20    21    1
    33    20    37    1
    34    20    38    1
    35    21    22    1
    36    22    27   ar
    37    22    23   ar
    38    23    24   ar
    39    23    39    1
    40    24    25   ar
    41    24    40    1
    42    25    26   ar
    43    25    41    1
    44    26    27   ar
    45    26    42    1
    46    27    43    1
@<TRIPOS>SUBSTRUCTURE
     1 ZINC000530457945        1 TEMP              0 ****  ****    0 ROOT


##########                                Name:    ZINC000151850193
##########                DOCK_Rotatable_Bonds:                  11
##########                         Heavy_Atoms:                  23
##########                    Molecular_Weight:             328.452
##########                DOCK_Rotatable_Bonds:                  11
##########                       Formal_Charge:            0.039999
##########                     HBond_Acceptors:                   6
##########                        HBond_Donors:                   2
##########                         Heavy_Atoms:                  23
##########                          Grid_Score:          -26.908094
##########                     Grid_vdw_energy:          -25.966915
##########                      Grid_es_energy:           -0.941179
##########           Internal_energy_repulsive:           32.058819

@<TRIPOS>MOLECULE
ZINC000151850193
 55 55 1 0 0
SMALL
USER_CHARGES


@<TRIPOS>ATOM
      1 C1        -10.9118    0.2685   60.5351 C.3     1  ZINC000151850193   -0.1500
      2 C2        -11.6548   -1.0689   60.5450 C.3     1  ZINC000151850193   -0.1000
      3 C3        -12.4165   -1.2390   59.2290 C.3     1  ZINC000151850193   -0.0800
      4 C4        -13.2976   -0.0343   58.8926 C.3     1  ZINC000151850193   -0.1000
      5 C5        -14.2951    0.2011   60.0286 C.3     1  ZINC000151850193   -0.1500
      6 C6        -11.5310   -1.7024   58.0603 C.3     1  ZINC000151850193    0.1400
      7 H7        -10.4807   -1.4346   58.1753 H       1  ZINC000151850193    0.1000
      8 N8        -12.0668   -1.3511   56.7429 N.am    1  ZINC000151850193   -0.7000
      9 C9        -11.2304   -0.9900   55.7496 C.2     1  ZINC000151850193    0.5200
     10 O10       -10.0343   -0.9544   55.9470 O.2     1  ZINC000151850193   -0.5300
     11 C11       -11.7815   -0.6302   54.3939 C.3     1  ZINC000151850193   -0.1500
     12 C12       -10.7454   -0.9615   53.3180 C.3     1  ZINC000151850193    0.1500
     13 N13       -10.0470    0.2629   52.9190 N.am    1  ZINC000151850193   -0.7100
     14 C14        -8.9054    0.1859   52.2067 C.2     1  ZINC000151850193    0.6500
     15 O15        -8.4547   -0.8991   51.8968 O.2     1  ZINC000151850193   -0.5600
     16 O16        -8.2644    1.3113   51.8387 O.3     1  ZINC000151850193   -0.3700
     17 C17        -7.6655    2.1048   52.8970 C.3     1  ZINC000151850193    0.1400
     18 C18        -7.1080    1.1761   53.9777 C.3     1  ZINC000151850193   -0.1800
     19 C19        -6.5310    2.9530   52.3188 C.3     1  ZINC000151850193   -0.1400
     20 C20        -8.7263    3.0214   53.5098 C.3     1  ZINC000151850193   -0.1800
     21 C21       -11.8501   -3.1433   58.4929 C.3     1  ZINC000151850193   -0.1700
     22 C22       -13.1451   -2.5879   59.1088 C.3     1  ZINC000151850193    0.0700
     23 H23       -13.3980   -3.0348   60.0704 H       1  ZINC000151850193    0.0800
     24 O24       -14.2478   -2.5659   58.2002 O.3     1  ZINC000151850193   -0.3700
     25 C25       -15.1244   -3.6878   58.3226 C.3     1  ZINC000151850193    0.0300
     26 H26       -10.1851    0.2744   59.7227 H       1  ZINC000151850193    0.0600
     27 H27       -11.6255    1.0795   60.3901 H       1  ZINC000151850193    0.0600
     28 H28       -10.3955    0.4044   61.4854 H       1  ZINC000151850193    0.0600
     29 H29       -10.9377   -1.8821   60.6576 H       1  ZINC000151850193    0.0700
     30 H30       -12.3586   -1.0874   61.3771 H       1  ZINC000151850193    0.0700
     31 H31       -12.6723    0.8500   58.7691 H       1  ZINC000151850193    0.0700
     32 H32       -13.8399   -0.2280   57.9672 H       1  ZINC000151850193    0.0700
     33 H33       -14.9677   -0.6533   60.1043 H       1  ZINC000151850193    0.0500
     34 H34       -13.7546    0.3223   60.9674 H       1  ZINC000151850193    0.0500
     35 H35       -14.8736    1.1018   59.8234 H       1  ZINC000151850193    0.0500
     36 H36       -13.0235   -1.3784   56.5854 H       1  ZINC000151850193    0.4100
     37 H37       -12.6921   -1.2000   54.2090 H       1  ZINC000151850193    0.1000
     38 H38       -12.0076    0.4357   54.3647 H       1  ZINC000151850193    0.1000
     39 H39       -10.0257   -1.6775   53.7148 H       1  ZINC000151850193    0.0800
     40 H40       -11.2467   -1.3926   52.4513 H       1  ZINC000151850193    0.0800
     41 H41       -10.4061    1.1291   53.1675 H       1  ZINC000151850193    0.4100
     42 H42        -6.3524    0.5231   53.5410 H       1  ZINC000151850193    0.0600
     43 H43        -6.6585    1.7718   54.7720 H       1  ZINC000151850193    0.0700
     44 H44        -7.9163    0.5718   54.3896 H       1  ZINC000151850193    0.0900
     45 H45        -6.9281    3.6146   51.5489 H       1  ZINC000151850193    0.0700
     46 H46        -6.0814    3.5487   53.1131 H       1  ZINC000151850193    0.0800
     47 H47        -5.7753    2.3000   51.8821 H       1  ZINC000151850193    0.0700
     48 H48        -9.5344    2.4171   53.9217 H       1  ZINC000151850193    0.0900
     49 H49        -8.2767    3.6171   54.3043 H       1  ZINC000151850193    0.0700
     50 H50        -9.1234    3.6830   52.7399 H       1  ZINC000151850193    0.0600
     51 H51       -12.0203   -3.8224   57.6575 H       1  ZINC000151850193    0.0800
     52 H52       -11.1527   -3.5427   59.2292 H       1  ZINC000151850193    0.1000
     53 H53       -14.5685   -4.6057   58.1317 H       1  ZINC000151850193    0.0400
     54 H54       -15.5387   -3.7170   59.3304 H       1  ZINC000151850193    0.0400
     55 H55       -15.9345   -3.5965   57.5992 H       1  ZINC000151850193    0.0900
@<TRIPOS>BOND
     1     1     2    1
     2     1    26    1
     3     1    27    1
     4     1    28    1
     5     2     3    1
     6     2    29    1
     7     2    30    1
     8     3    22    1
     9     3     4    1
    10     3     6    1
    11     4     5    1
    12     4    31    1
    13     4    32    1
    14     5    33    1
    15     5    34    1
    16     5    35    1
    17     6     7    1
    18     6     8    1
    19     6    21    1
    20     8     9   am
    21     8    36    1
    22     9    10    2
    23     9    11    1
    24    11    12    1
    25    11    37    1
    26    11    38    1
    27    12    13    1
    28    12    39    1
    29    12    40    1
    30    13    14   am
    31    13    41    1
    32    14    15    2
    33    14    16    1
    34    16    17    1
    35    17    18    1
    36    17    19    1
    37    17    20    1
    38    18    42    1
    39    18    43    1
    40    18    44    1
    41    19    45    1
    42    19    46    1
    43    19    47    1
    44    20    48    1
    45    20    49    1
    46    20    50    1
    47    21    22    1
    48    21    51    1
    49    21    52    1
    50    22    23    1
    51    22    24    1
    52    24    25    1
    53    25    53    1
    54    25    54    1
    55    25    55    1
@<TRIPOS>SUBSTRUCTURE
     1 ZINC000151850193        1 TEMP              0 ****  ****    0 ROOT


##########                                Name:    ZINC000944933040
##########                DOCK_Rotatable_Bonds:                   4
##########                         Heavy_Atoms:                  26
##########                    Molecular_Weight:             354.449
##########                DOCK_Rotatable_Bonds:                   4
##########                       Formal_Charge:           0.0100002
##########                     HBond_Acceptors:                   5
##########                        HBond_Donors:                   0
##########                         Heavy_Atoms:                  26
##########                          Grid_Score:          -26.890081
##########                     Grid_vdw_energy:          -26.788849
##########                      Grid_es_energy:           -0.101232
##########           Internal_energy_repulsive:            8.949766

@<TRIPOS>MOLECULE
ZINC000944933040
 52 57 1 0 0
SMALL
USER_CHARGES


@<TRIPOS>ATOM
      1 O1        -11.7881   -0.0908   61.9966 O.2     1  ZINC000944933040   -0.5200
      2 C2        -10.6179    0.2402   61.9880 C.2     1  ZINC000944933040    0.6400
      3 C3         -9.9009    0.3684   63.2211 C.1     1  ZINC000944933040   -0.2200
      4 C4         -9.3133    0.4735   64.2319 C.1     1  ZINC000944933040   -0.0400
      5 C5         -8.5765    0.6054   65.4993 C.3     1  ZINC000944933040   -0.0700
      6 C6         -9.3006    1.2706   66.6715 C.3     1  ZINC000944933040   -0.1600
      7 C7         -9.0513   -0.2389   66.6837 C.3     1  ZINC000944933040   -0.1600
      8 N8         -9.9941    0.4809   60.8178 N.am    1  ZINC000944933040   -0.6000
      9 C9         -8.5778    0.8693   60.7947 C.3     1  ZINC000944933040    0.1100
     10 C10        -8.4422    2.1948   60.0357 C.3     1  ZINC000944933040   -0.1200
     11 C11        -9.1260    2.0649   58.6769 C.3     1  ZINC000944933040   -0.0900
     12 C12        -8.8648    3.2531   57.7409 C.3     1  ZINC000944933040    0.1200
     13 N13        -8.6949    2.2438   56.6766 N.am    1  ZINC000944933040   -0.6400
     14 C14        -8.8162    2.2578   55.3343 C.2     1  ZINC000944933040    0.5500
     15 O15        -9.1316    3.2809   54.7646 O.2     1  ZINC000944933040   -0.5300
     16 C16        -8.5601    1.0021   54.5414 C.3     1  ZINC000944933040   -0.1300
     17 H17        -8.0562    0.2555   55.1553 H       1  ZINC000944933040    0.1100
     18 C18        -7.7328    1.3156   53.2687 C.3     1  ZINC000944933040   -0.1300
     19 C19        -8.6942    0.8898   52.1188 C.3     1  ZINC000944933040    0.0900
     20 H20        -8.4953    1.3473   51.1497 H       1  ZINC000944933040    0.1300
     21 O21        -9.9997    1.1964   52.7097 O.3     1  ZINC000944933040   -0.3600
     22 C22        -9.8904    0.4340   53.9622 C.3     1  ZINC000944933040    0.1200
     23 H23       -10.7579    0.4801   54.6204 H       1  ZINC000944933040    0.1400
     24 C24        -9.5342   -0.9844   53.4244 C.3     1  ZINC000944933040   -0.2000
     25 H25        -9.2526   -1.7526   54.1446 H       1  ZINC000944933040    0.1200
     26 C26       -10.1034   -1.3793   52.0601 C.3     1  ZINC000944933040   -0.1300
     27 C27        -8.6916   -0.6682   52.1351 C.3     1  ZINC000944933040   -0.2000
     28 H28        -7.7883   -1.2111   51.8563 H       1  ZINC000944933040    0.1300
     29 C29        -8.3378    1.2132   57.6719 C.3     1  ZINC000944933040    0.1100
     30 C30       -10.5998    1.6800   58.7798 C.3     1  ZINC000944933040   -0.1100
     31 C31       -10.7195    0.3525   59.5470 C.3     1  ZINC000944933040    0.1100
     32 H32        -7.5050    0.7813   65.4041 H       1  ZINC000944933040    0.1400
     33 H33        -8.7054    1.8844   67.3477 H       1  ZINC000944933040    0.1100
     34 H34       -10.3225    1.6106   66.5042 H       1  ZINC000944933040    0.1000
     35 H35        -9.9093   -0.8920   66.5243 H       1  ZINC000944933040    0.1000
     36 H36        -8.2921   -0.6182   67.3678 H       1  ZINC000944933040    0.1100
     37 H37        -8.2165    0.9942   61.8155 H       1  ZINC000944933040    0.0900
     38 H38        -7.9955    0.0982   60.2905 H       1  ZINC000944933040    0.0800
     39 H39        -8.9165    2.9924   60.6076 H       1  ZINC000944933040    0.0800
     40 H40        -7.3868    2.4261   59.8920 H       1  ZINC000944933040    0.0900
     41 H41        -9.7307    3.8998   57.5994 H       1  ZINC000944933040    0.0800
     42 H42        -7.9537    3.8042   57.9739 H       1  ZINC000944933040    0.0900
     43 H43        -7.5058    2.3799   53.2080 H       1  ZINC000944933040    0.0800
     44 H44        -6.8184    0.7227   53.2468 H       1  ZINC000944933040    0.0900
     45 H45       -10.1043   -2.4390   51.8044 H       1  ZINC000944933040    0.1000
     46 H46       -10.9514   -0.8061   51.6851 H       1  ZINC000944933040    0.1000
     47 H47        -7.2701    1.1582   57.8843 H       1  ZINC000944933040    0.0900
     48 H48        -8.7848    0.2387   57.4757 H       1  ZINC000944933040    0.0800
     49 H49       -11.1441    2.4608   59.3110 H       1  ZINC000944933040    0.0800
     50 H50       -11.0158    1.5601   57.7796 H       1  ZINC000944933040    0.0800
     51 H51       -10.2874   -0.4529   58.9532 H       1  ZINC000944933040    0.0700
     52 H52       -11.7697    0.1393   59.7467 H       1  ZINC000944933040    0.1000
@<TRIPOS>BOND
     1     1     2    2
     2     2     3    1
     3     2     8   am
     4     3     4    3
     5     4     5    1
     6     5     7    1
     7     5     6    1
     8     5    32    1
     9     6     7    1
    10     6    33    1
    11     6    34    1
    12     7    35    1
    13     7    36    1
    14     8    31    1
    15     8     9    1
    16     9    10    1
    17     9    37    1
    18     9    38    1
    19    10    11    1
    20    10    39    1
    21    10    40    1
    22    11    29    1
    23    11    12    1
    24    11    30    1
    25    12    13    1
    26    12    41    1
    27    12    42    1
    28    13    14   am
    29    13    29    1
    30    14    15    2
    31    14    16    1
    32    16    17    1
    33    16    22    1
    34    16    18    1
    35    18    19    1
    36    18    43    1
    37    18    44    1
    38    19    20    1
    39    19    27    1
    40    19    21    1
    41    21    22    1
    42    22    23    1
    43    22    24    1
    44    24    25    1
    45    24    27    1
    46    24    26    1
    47    26    27    1
    48    26    45    1
    49    26    46    1
    50    27    28    1
    51    29    47    1
    52    29    48    1
    53    30    31    1
    54    30    49    1
    55    30    50    1
    56    31    51    1
    57    31    52    1
@<TRIPOS>SUBSTRUCTURE
     1 ZINC000944933040        1 TEMP              0 ****  ****    0 ROOT


##########                                Name:    ZINC000252489163
##########                DOCK_Rotatable_Bonds:                   6
##########                         Heavy_Atoms:                  25
##########                    Molecular_Weight:             379.403
##########                DOCK_Rotatable_Bonds:                   6
##########                       Formal_Charge:          0.00999963
##########                     HBond_Acceptors:                  10
##########                        HBond_Donors:                   2
##########                         Heavy_Atoms:                  25
##########                          Grid_Score:          -26.889725
##########                     Grid_vdw_energy:          -23.858284
##########                      Grid_es_energy:           -3.031441
##########           Internal_energy_repulsive:            9.584551

@<TRIPOS>MOLECULE
ZINC000252489163
 45 46 1 0 0
SMALL
USER_CHARGES


@<TRIPOS>ATOM
      1 C1         -6.8980    3.0478   56.8679 C.3     1  ZINC000252489163   -0.1100
      2 C2         -7.9719    2.0425   57.1953 C.ar    1  ZINC000252489163   -0.0600
      3 C3         -8.4883    1.9767   58.4743 C.ar    1  ZINC000252489163   -0.1300
      4 C4         -9.4783    1.0503   58.7751 C.ar    1  ZINC000252489163    0.1700
      5 N5        -10.0041    0.9815   60.0702 N.am    1  ZINC000252489163   -0.6800
      6 C6        -10.8826    1.9129   60.4913 C.2     1  ZINC000252489163    0.7100
      7 O7        -11.2183    2.8129   59.7459 O.2     1  ZINC000252489163   -0.5500
      8 N8        -11.3890    1.8465   61.7386 N.am    1  ZINC000252489163   -0.6200
      9 C9        -12.3476    2.8544   62.2120 C.3     1  ZINC000252489163    0.1000
     10 C10       -11.8299    3.4485   63.5256 C.3     1  ZINC000252489163   -0.1400
     11 C11       -11.5632    2.3179   64.5220 C.3     1  ZINC000252489163   -0.1300
     12 C12       -10.4909    1.3821   63.9594 C.3     1  ZINC000252489163    0.1400
     13 H13        -9.5787    1.9474   63.7684 H       1  ZINC000252489163    0.0900
     14 N14       -10.2132    0.3183   64.9276 N.am    1  ZINC000252489163   -1.1100
     15 S15        -8.7920    0.3227   65.7777 S.o2    1  ZINC000252489163    2.6100
     16 C16        -7.5027    0.2363   64.5046 C.3     1  ZINC000252489163   -0.6700
     17 O17        -8.7728    1.5892   66.4217 O.2     1  ZINC000252489163   -0.9500
     18 O18        -8.8305   -0.8817   66.5309 O.2     1  ZINC000252489163   -0.9500
     19 C19       -10.9977    0.7615   62.6486 C.3     1  ZINC000252489163    0.1100
     20 C20        -9.9457    0.1929   57.7881 C.ar    1  ZINC000252489163   -0.1000
     21 C21        -9.4249    0.2636   56.5106 C.ar    1  ZINC000252489163   -0.1600
     22 C22        -9.9316   -0.6667   55.4387 C.3     1  ZINC000252489163    0.5100
     23 F23       -10.3516   -1.8664   56.0229 F       1  ZINC000252489163   -0.1700
     24 F24       -11.0081   -0.0698   54.7738 F       1  ZINC000252489163   -0.1800
     25 F25        -8.9054   -0.9274   54.5242 F       1  ZINC000252489163   -0.1800
     26 C26        -8.4432    1.1906   56.2130 C.ar    1  ZINC000252489163   -0.0900
     27 H27        -7.3598    3.9783   56.5380 H       1  ZINC000252489163    0.0800
     28 H28        -6.2942    3.2365   57.7555 H       1  ZINC000252489163    0.0700
     29 H29        -6.2632    2.6555   56.0734 H       1  ZINC000252489163    0.0700
     30 H30        -8.1226    2.6448   59.2400 H       1  ZINC000252489163    0.1300
     31 H31        -9.7363    0.2635   60.6649 H       1  ZINC000252489163    0.4100
     32 H32       -12.4449    3.6443   61.4671 H       1  ZINC000252489163    0.0800
     33 H33       -13.3173    2.3859   62.3798 H       1  ZINC000252489163    0.0800
     34 H34       -10.9051    3.9942   63.3387 H       1  ZINC000252489163    0.0700
     35 H35       -12.5768    4.1274   63.9372 H       1  ZINC000252489163    0.0900
     36 H36       -11.2182    2.7396   65.4660 H       1  ZINC000252489163    0.0800
     37 H37       -12.4828    1.7571   64.6896 H       1  ZINC000252489163    0.0800
     38 H38       -10.8619   -0.3885   65.0708 H       1  ZINC000252489163    0.4200
     39 H39        -7.5851    1.1001   63.8449 H       1  ZINC000252489163    0.1300
     40 H40        -6.5220    0.2344   64.9802 H       1  ZINC000252489163    0.1300
     41 H41        -7.6265   -0.6776   63.9235 H       1  ZINC000252489163    0.1300
     42 H42       -11.8564    0.1227   62.8549 H       1  ZINC000252489163    0.0800
     43 H43       -10.2026    0.1721   62.1920 H       1  ZINC000252489163    0.1100
     44 H44       -10.7151   -0.5289   58.0190 H       1  ZINC000252489163    0.1800
     45 H45        -8.0380    1.2442   55.2134 H       1  ZINC000252489163    0.1300
@<TRIPOS>BOND
     1     1     2    1
     2     1    27    1
     3     1    28    1
     4     1    29    1
     5     2    26   ar
     6     2     3   ar
     7     3     4   ar
     8     3    30    1
     9     4     5    1
    10     4    20   ar
    11     5     6   am
    12     5    31    1
    13     6     7    2
    14     6     8   am
    15     8    19    1
    16     8     9    1
    17     9    10    1
    18     9    32    1
    19     9    33    1
    20    10    11    1
    21    10    34    1
    22    10    35    1
    23    11    12    1
    24    11    36    1
    25    11    37    1
    26    12    13    1
    27    12    14    1
    28    12    19    1
    29    14    15   am
    30    14    38    1
    31    15    16    1
    32    15    17    2
    33    15    18    2
    34    16    39    1
    35    16    40    1
    36    16    41    1
    37    19    42    1
    38    19    43    1
    39    20    21   ar
    40    20    44    1
    41    21    22    1
    42    21    26   ar
    43    22    23    1
    44    22    24    1
    45    22    25    1
    46    26    45    1
@<TRIPOS>SUBSTRUCTURE
     1 ZINC000252489163        1 TEMP              0 ****  ****    0 ROOT


##########                                Name:    ZINC000458730620
##########                DOCK_Rotatable_Bonds:                   9
##########                         Heavy_Atoms:                  25
##########                    Molecular_Weight:              375.44
##########                DOCK_Rotatable_Bonds:                   9
##########                       Formal_Charge:        -1.86265e-07
##########                     HBond_Acceptors:                   9
##########                        HBond_Donors:                   3
##########                         Heavy_Atoms:                  25
##########                          Grid_Score:          -26.888615
##########                     Grid_vdw_energy:          -26.352299
##########                      Grid_es_energy:           -0.536316
##########           Internal_energy_repulsive:           49.029526

@<TRIPOS>MOLECULE
ZINC000458730620
 48 49 1 0 0
SMALL
USER_CHARGES


@<TRIPOS>ATOM
      1 C1         -8.7003   -0.5554   61.2105 C.3     1  ZINC000458730620   -0.1600
      2 C2         -9.3765   -0.0450   59.9364 C.3     1  ZINC000458730620    0.2000
      3 C3         -8.3597    0.7281   59.0942 C.3     1  ZINC000458730620   -0.1600
      4 N4         -9.8860   -1.1816   59.1651 N.am    1  ZINC000458730620   -0.7400
      5 C5        -10.5831   -0.9684   58.0314 C.2     1  ZINC000458730620    0.7100
      6 O6        -10.7904    0.1673   57.6497 O.2     1  ZINC000458730620   -0.5800
      7 N7        -11.0504   -2.0140   57.3210 N.am    1  ZINC000458730620   -0.7500
      8 C8        -11.8066   -1.7822   56.0879 C.3     1  ZINC000458730620    0.1300
      9 C9        -10.8360   -1.4927   54.9411 C.3     1  ZINC000458730620    0.1000
     10 N10       -11.5885   -1.0518   53.7640 N.am    1  ZINC000458730620   -1.1100
     11 S11       -10.7878   -0.6622   52.3677 S.o2    1  ZINC000458730620    2.7000
     12 O12        -9.9692   -1.7794   52.0495 O.2     1  ZINC000458730620   -0.9400
     13 O13       -11.7638   -0.1357   51.4791 O.2     1  ZINC000458730620   -0.9400
     14 C14        -9.6929    0.6650   52.7472 C.ar    1  ZINC000458730620   -0.7300
     15 C15        -8.3426    0.4209   52.9119 C.ar    1  ZINC000458730620    0.0400
     16 C16        -7.4825    1.4613   53.2092 C.ar    1  ZINC000458730620   -0.1800
     17 C17        -7.9727    2.7491   53.3423 C.ar    1  ZINC000458730620    0.1900
     18 F18        -7.1316    3.7658   53.6325 F       1  ZINC000458730620   -0.1200
     19 C19        -9.3252    2.9949   53.1776 C.ar    1  ZINC000458730620   -0.2100
     20 C20       -10.1848    1.9533   52.8748 C.ar    1  ZINC000458730620    0.2200
     21 F21       -11.5048    2.1916   52.7138 F       1  ZINC000458730620   -0.1100
     22 C22       -10.5372    0.8791   60.3101 C.3     1  ZINC000458730620   -0.1100
     23 C23       -10.2753    1.7174   61.5724 C.3     1  ZINC000458730620   -0.1400
     24 C24       -10.9592    2.8858   60.8430 C.3     1  ZINC000458730620   -0.1400
     25 C25       -10.5468    2.2032   59.5281 C.3     1  ZINC000458730620   -0.1400
     26 H26        -8.2675    0.2847   61.7536 H       1  ZINC000458730620    0.0600
     27 H27        -9.4388   -1.0528   61.8394 H       1  ZINC000458730620    0.0500
     28 H28        -7.9134   -1.2617   60.9463 H       1  ZINC000458730620    0.0800
     29 H29        -7.5328    0.0697   58.8280 H       1  ZINC000458730620    0.0800
     30 H30        -8.8413    1.0917   58.1865 H       1  ZINC000458730620    0.0500
     31 H31        -7.9806    1.5738   59.6681 H       1  ZINC000458730620    0.0600
     32 H32        -9.7216   -2.0875   59.4702 H       1  ZINC000458730620    0.3900
     33 H33       -10.8861   -2.9199   57.6262 H       1  ZINC000458730620    0.4000
     34 H34       -12.3952   -2.6684   55.8506 H       1  ZINC000458730620    0.0800
     35 H35       -12.4721   -0.9298   56.2245 H       1  ZINC000458730620    0.0800
     36 H36       -10.1409   -0.7090   55.2425 H       1  ZINC000458730620    0.0900
     37 H37       -10.2797   -2.3981   54.6986 H       1  ZINC000458730620    0.0700
     38 H38       -12.5555   -0.9883   53.8024 H       1  ZINC000458730620    0.4300
     39 H39        -7.9594   -0.5835   52.8085 H       1  ZINC000458730620    0.1700
     40 H40        -6.4275    1.2693   53.3380 H       1  ZINC000458730620    0.1600
     41 H41        -9.7085    3.9992   53.2814 H       1  ZINC000458730620    0.1600
     42 H42       -11.5000    0.3683   60.3156 H       1  ZINC000458730620    0.1100
     43 H43       -10.8222    1.3698   62.4488 H       1  ZINC000458730620    0.0700
     44 H44        -9.2172    1.8868   61.7723 H       1  ZINC000458730620    0.0800
     45 H45       -12.0378    2.9243   60.9953 H       1  ZINC000458730620    0.0800
     46 H46       -10.4729    3.8475   61.0069 H       1  ZINC000458730620    0.0700
     47 H47        -9.5629    2.5054   59.1691 H       1  ZINC000458730620    0.0800
     48 H48       -11.3129    2.2476   58.7541 H       1  ZINC000458730620    0.0700
@<TRIPOS>BOND
     1     1     2    1
     2     1    26    1
     3     1    27    1
     4     1    28    1
     5     2     3    1
     6     2     4    1
     7     2    22    1
     8     3    29    1
     9     3    30    1
    10     3    31    1
    11     4     5   am
    12     4    32    1
    13     5     6    2
    14     5     7   am
    15     7     8    1
    16     7    33    1
    17     8     9    1
    18     8    34    1
    19     8    35    1
    20     9    10    1
    21     9    36    1
    22     9    37    1
    23    10    11   am
    24    10    38    1
    25    11    12    2
    26    11    13    2
    27    11    14    1
    28    14    20   ar
    29    14    15   ar
    30    15    16   ar
    31    15    39    1
    32    16    17   ar
    33    16    40    1
    34    17    18    1
    35    17    19   ar
    36    19    20   ar
    37    19    41    1
    38    20    21    1
    39    22    25    1
    40    22    23    1
    41    22    42    1
    42    23    24    1
    43    23    43    1
    44    23    44    1
    45    24    25    1
    46    24    45    1
    47    24    46    1
    48    25    47    1
    49    25    48    1
@<TRIPOS>SUBSTRUCTURE
     1 ZINC000458730620        1 TEMP              0 ****  ****    0 ROOT


##########                                Name:    ZINC000915315870
##########                DOCK_Rotatable_Bonds:                   4
##########                         Heavy_Atoms:                  24
##########                    Molecular_Weight:             357.381
##########                DOCK_Rotatable_Bonds:                   4
##########                       Formal_Charge:           0.0300002
##########                     HBond_Acceptors:                   9
##########                        HBond_Donors:                   1
##########                         Heavy_Atoms:                  24
##########                          Grid_Score:          -26.873699
##########                     Grid_vdw_energy:          -26.725906
##########                      Grid_es_energy:           -0.147793
##########           Internal_energy_repulsive:           38.124947

@<TRIPOS>MOLECULE
ZINC000915315870
 41 43 1 0 0
SMALL
USER_CHARGES


@<TRIPOS>ATOM
      1 C1         -9.5775    0.8732   64.3163 C.3     1  ZINC000915315870    0.0300
      2 O2        -10.8347    0.8246   63.6387 O.3     1  ZINC000915315870   -0.3200
      3 C3        -10.8858    0.1095   62.4829 C.ar    1  ZINC000915315870    0.0800
      4 C4        -12.0677    0.0430   61.7576 C.ar    1  ZINC000915315870    0.0900
      5 F5        -13.1690    0.6895   62.1987 F       1  ZINC000915315870   -0.1100
      6 C6        -12.1165   -0.6854   60.5821 C.ar    1  ZINC000915315870   -0.0500
      7 C7        -10.9900   -1.3471   60.1300 C.ar    1  ZINC000915315870   -0.6300
      8 S8        -11.0563   -2.2741   58.6331 S.o2    1  ZINC000915315870    2.7000
      9 O9        -10.6511   -3.5960   58.9613 O.2     1  ZINC000915315870   -0.9400
     10 O10       -12.3066   -1.9719   58.0291 O.2     1  ZINC000915315870   -0.9400
     11 N11        -9.8912   -1.6641   57.6267 N.am    1  ZINC000915315870   -1.1100
     12 C12        -9.9403   -0.2586   57.2165 C.3     1  ZINC000915315870    0.2400
     13 H13       -10.9763    0.0781   57.1808 H       1  ZINC000915315870    0.0900
     14 C14        -9.1513    0.5994   58.2137 C.3     1  ZINC000915315870   -0.1400
     15 C15        -8.9952    2.0186   57.6631 C.3     1  ZINC000915315870   -0.1100
     16 C16        -8.0020    2.0148   56.4943 C.3     1  ZINC000915315870   -0.0400
     17 C17        -8.4175    0.9340   55.5260 C.2     1  ZINC000915315870    0.0900
     18 N18        -8.0512    0.7769   54.2873 N.2     1  ZINC000915315870   -0.2900
     19 N19        -8.6945   -0.3636   53.7831 N.pl3   1  ZINC000915315870   -0.3800
     20 C20        -8.5605   -0.8987   52.4259 C.3     1  ZINC000915315870    0.1000
     21 C21        -9.4593   -0.8823   54.7700 C.2     1  ZINC000915315870    0.0800
     22 C22        -9.3072   -0.1031   55.8558 C.2     1  ZINC000915315870   -0.2500
     23 C23        -9.8113   -1.2826   60.8497 C.ar    1  ZINC000915315870   -0.0500
     24 C24        -9.7545   -0.5511   62.0230 C.ar    1  ZINC000915315870    0.1000
     25 F25        -8.6024   -0.4885   62.7257 F       1  ZINC000915315870   -0.1100
     26 H26        -9.6752    1.4742   65.2205 H       1  ZINC000915315870    0.1100
     27 H27        -9.2695   -0.1377   64.5836 H       1  ZINC000915315870    0.0600
     28 H28        -8.8290    1.3201   63.6621 H       1  ZINC000915315870    0.0500
     29 H29       -13.0357   -0.7374   60.0174 H       1  ZINC000915315870    0.1700
     30 H30        -9.1762   -2.2374   57.3089 H       1  ZINC000915315870    0.4200
     31 H31        -9.6856    0.6355   59.1631 H       1  ZINC000915315870    0.0900
     32 H32        -8.1659    0.1604   58.3695 H       1  ZINC000915315870    0.0800
     33 H33        -9.9626    2.3811   57.3156 H       1  ZINC000915315870    0.0700
     34 H34        -8.6250    2.6745   58.4511 H       1  ZINC000915315870    0.0800
     35 H35        -8.0191    2.9831   55.9942 H       1  ZINC000915315870    0.0800
     36 H36        -6.9980    1.8097   56.8657 H       1  ZINC000915315870    0.0900
     37 H37        -7.7373   -1.6125   52.3965 H       1  ZINC000915315870    0.0800
     38 H38        -9.4857   -1.3990   52.1397 H       1  ZINC000915315870    0.0900
     39 H39        -8.3590   -0.0827   51.7319 H       1  ZINC000915315870    0.0900
     40 H40       -10.0804   -1.7630   54.6995 H       1  ZINC000915315870    0.1700
     41 H41        -8.9329   -1.8003   60.4938 H       1  ZINC000915315870    0.1700
@<TRIPOS>BOND
     1     1     2    1
     2     1    26    1
     3     1    27    1
     4     1    28    1
     5     2     3    1
     6     3    24   ar
     7     3     4   ar
     8     4     5    1
     9     4     6   ar
    10     6     7   ar
    11     6    29    1
    12     7     8    1
    13     7    23   ar
    14     8     9    2
    15     8    10    2
    16     8    11   am
    17    11    12    1
    18    11    30    1
    19    12    13    1
    20    12    22    1
    21    12    14    1
    22    14    15    1
    23    14    31    1
    24    14    32    1
    25    15    16    1
    26    15    33    1
    27    15    34    1
    28    16    17    1
    29    16    35    1
    30    16    36    1
    31    17    22    1
    32    17    18    2
    33    18    19    1
    34    19    20    1
    35    19    21    1
    36    20    37    1
    37    20    38    1
    38    20    39    1
    39    21    22    2
    40    21    40    1
    41    23    24   ar
    42    23    41    1
    43    24    25    1
@<TRIPOS>SUBSTRUCTURE
     1 ZINC000915315870        1 TEMP              0 ****  ****    0 ROOT


##########                                Name:    ZINC000291574087
##########                DOCK_Rotatable_Bonds:                   8
##########                         Heavy_Atoms:                  23
##########                    Molecular_Weight:             387.249
##########                DOCK_Rotatable_Bonds:                   8
##########                       Formal_Charge:          -0.0400007
##########                     HBond_Acceptors:                   6
##########                        HBond_Donors:                   2
##########                         Heavy_Atoms:                  23
##########                          Grid_Score:          -26.860989
##########                     Grid_vdw_energy:          -23.459705
##########                      Grid_es_energy:           -3.401282
##########           Internal_energy_repulsive:           24.663361

@<TRIPOS>MOLECULE
ZINC000291574087
 43 44 1 0 0
SMALL
USER_CHARGES


@<TRIPOS>ATOM
      1 C1         -0.1702    5.0568   52.7164 C.3     1  ZINC000291574087    0.0200
      2 O2         -1.1769    5.6476   53.5407 O.3     1  ZINC000291574087   -0.3700
      3 C3         -2.1506    4.7198   54.0239 C.3     1  ZINC000291574087    0.1400
      4 C4         -1.5211    3.8348   55.1015 C.3     1  ZINC000291574087   -0.1500
      5 C5         -2.6400    3.8456   52.8676 C.3     1  ZINC000291574087    0.0900
      6 N6         -3.8830    3.1741   53.2552 N.am    1  ZINC000291574087   -0.6900
      7 C7         -5.0386    3.4849   52.6351 C.2     1  ZINC000291574087    0.5100
      8 O8         -5.0496    4.3221   51.7566 O.2     1  ZINC000291574087   -0.5100
      9 C9         -6.3053    2.7991   53.0290 C.2     1  ZINC000291574087    0.5100
     10 O10        -7.3742    3.2382   52.6575 O.2     1  ZINC000291574087   -0.4900
     11 N11        -6.2616    1.6923   53.7969 N.am    1  ZINC000291574087   -0.6400
     12 C12        -7.4479    1.0500   54.1658 C.ar    1  ZINC000291574087    0.1300
     13 C13        -8.1309    0.2675   53.2446 C.ar    1  ZINC000291574087   -0.1000
     14 C14        -9.3022   -0.3664   53.6118 C.ar    1  ZINC000291574087   -0.0400
     15 C15       -10.0434   -1.2157   52.6116 C.3     1  ZINC000291574087   -0.1300
     16 C16        -9.7957   -0.2230   54.8961 C.ar    1  ZINC000291574087   -0.0900
     17 Br17      -11.3989   -1.0940   55.3935 Br      1  ZINC000291574087   -0.0300
     18 C18        -9.1185    0.5559   55.8181 C.ar    1  ZINC000291574087   -0.1000
     19 C19        -7.9432    1.1891   55.4588 C.ar    1  ZINC000291574087    0.0700
     20 F20        -7.2820    1.9495   56.3585 F       1  ZINC000291574087   -0.1300
     21 C21        -3.3333    5.4860   54.6200 C.3     1  ZINC000291574087   -0.1900
     22 C22        -3.7057    5.1905   56.0742 C.3     1  ZINC000291574087   -0.1700
     23 C23        -3.0307    6.5148   55.7113 C.3     1  ZINC000291574087   -0.1600
     24 H24         0.5301    5.8260   52.3904 H       1  ZINC000291574087    0.0900
     25 H25         0.3647    4.2960   53.2850 H       1  ZINC000291574087    0.0400
     26 H26        -0.6372    4.5978   51.8450 H       1  ZINC000291574087    0.0500
     27 H27        -1.1724    4.4576   55.9253 H       1  ZINC000291574087    0.0700
     28 H28        -2.2638    3.1272   55.4700 H       1  ZINC000291574087    0.0800
     29 H29        -0.6786    3.2890   54.6768 H       1  ZINC000291574087    0.0700
     30 H30        -2.8216    4.4692   51.9922 H       1  ZINC000291574087    0.0900
     31 H31        -1.8822    3.0987   52.6308 H       1  ZINC000291574087    0.0800
     32 H32        -3.8743    2.5058   53.9582 H       1  ZINC000291574087    0.4200
     33 H33        -5.4075    1.3413   54.0937 H       1  ZINC000291574087    0.4300
     34 H34        -7.7469    0.1546   52.2415 H       1  ZINC000291574087    0.1600
     35 H35        -9.6833   -2.2429   52.6697 H       1  ZINC000291574087    0.0800
     36 H36       -11.1102   -1.1916   52.8342 H       1  ZINC000291574087    0.0800
     37 H37        -9.8728   -0.8271   51.6077 H       1  ZINC000291574087    0.0800
     38 H38        -9.5065    0.6662   56.8200 H       1  ZINC000291574087    0.1500
     39 H39        -4.1449    5.7104   53.9279 H       1  ZINC000291574087    0.1100
     40 H40        -4.7626    5.2203   56.3392 H       1  ZINC000291574087    0.1000
     41 H41        -3.1082    4.4502   56.6063 H       1  ZINC000291574087    0.1000
     42 H42        -1.9892    6.6457   56.0047 H       1  ZINC000291574087    0.1000
     43 H43        -3.6436    7.4157   55.7374 H       1  ZINC000291574087    0.1000
@<TRIPOS>BOND
     1     1     2    1
     2     1    24    1
     3     1    25    1
     4     1    26    1
     5     2     3    1
     6     3     4    1
     7     3     5    1
     8     3    21    1
     9     4    27    1
    10     4    28    1
    11     4    29    1
    12     5     6    1
    13     5    30    1
    14     5    31    1
    15     6     7   am
    16     6    32    1
    17     7     8    2
    18     7     9    1
    19     9    10    2
    20     9    11   am
    21    11    12    1
    22    11    33    1
    23    12    19   ar
    24    12    13   ar
    25    13    14   ar
    26    13    34    1
    27    14    15    1
    28    14    16   ar
    29    15    35    1
    30    15    36    1
    31    15    37    1
    32    16    17    1
    33    16    18   ar
    34    18    19   ar
    35    18    38    1
    36    19    20    1
    37    21    23    1
    38    21    22    1
    39    21    39    1
    40    22    23    1
    41    22    40    1
    42    22    41    1
    43    23    42    1
    44    23    43    1
@<TRIPOS>SUBSTRUCTURE
     1 ZINC000291574087        1 TEMP              0 ****  ****    0 ROOT


##########                                Name:    ZINC000459459628
##########                DOCK_Rotatable_Bonds:                   8
##########                         Heavy_Atoms:                  27
##########                    Molecular_Weight:             377.366
##########                DOCK_Rotatable_Bonds:                   8
##########                       Formal_Charge:         -0.00999984
##########                     HBond_Acceptors:                   8
##########                        HBond_Donors:                   1
##########                         Heavy_Atoms:                  27
##########                          Grid_Score:          -26.839790
##########                     Grid_vdw_energy:          -26.712347
##########                      Grid_es_energy:           -0.127443
##########           Internal_energy_repulsive:           13.968976

@<TRIPOS>MOLECULE
ZINC000459459628
 45 46 1 0 0
SMALL
USER_CHARGES


@<TRIPOS>ATOM
      1 C1         -9.3364   -1.4614   53.2721 C.3     1  ZINC000459459628   -0.1600
      2 C2         -9.4549   -0.3100   54.2727 C.3     1  ZINC000459459628    0.1600
      3 H3         -8.6716   -0.4006   55.0253 H       1  ZINC000459459628    0.1100
      4 C4        -10.8244   -0.3641   54.9528 C.3     1  ZINC000459459628   -0.0900
      5 C5        -10.7091   -1.1131   56.2554 C.ar    1  ZINC000459459628   -0.0500
      6 C6        -11.3920   -2.3019   56.4316 C.ar    1  ZINC000459459628   -0.1200
      7 C7        -11.2872   -2.9901   57.6262 C.ar    1  ZINC000459459628   -0.0900
      8 C8        -10.4994   -2.4902   58.6453 C.ar    1  ZINC000459459628   -0.1600
      9 C9         -9.8143   -1.2996   58.4697 C.ar    1  ZINC000459459628    0.1000
     10 F10        -9.0437   -0.8098   59.4655 F       1  ZINC000459459628   -0.1400
     11 C11        -9.9158   -0.6140   57.2713 C.ar    1  ZINC000459459628   -0.1500
     12 N12        -9.3097    0.9662   53.5680 N.am    1  ZINC000459459628   -0.6200
     13 C13       -10.4732    1.5872   52.9302 C.3     1  ZINC000459459628    0.0700
     14 C14        -8.1058    1.5689   53.5066 C.2     1  ZINC000459459628    0.7100
     15 O15        -7.1404    1.0542   54.0371 O.2     1  ZINC000459459628   -0.5700
     16 N16        -7.9720    2.7422   52.8569 N.am    1  ZINC000459459628   -0.6800
     17 C17        -6.7197    3.3690   52.7930 C.ar    1  ZINC000459459628    0.1500
     18 C18        -6.1497    3.8942   53.9380 C.ar    1  ZINC000459459628   -0.0400
     19 C19        -4.9009    4.5179   53.8700 C.ar    1  ZINC000459459628   -0.0300
     20 C20        -4.3057    5.0630   55.0528 C.1     1  ZINC000459459628    0.2600
     21 N21        -3.8335    5.4955   55.9911 N.1     1  ZINC000459459628   -0.4100
     22 C22        -4.2343    4.6080   52.6455 C.ar    1  ZINC000459459628   -0.0500
     23 C23        -4.8082    4.0828   51.5072 C.ar    1  ZINC000459459628   -0.1700
     24 C24        -6.0453    3.4582   51.5745 C.ar    1  ZINC000459459628    0.1100
     25 O25        -6.6061    2.9425   50.4501 O.3     1  ZINC000459459628   -0.3200
     26 C26        -7.3900    3.8301   49.6502 C.3     1  ZINC000459459628    0.4100
     27 F27        -8.6692    3.9500   50.2037 F       1  ZINC000459459628   -0.1900
     28 F28        -6.7781    5.0877   49.6131 F       1  ZINC000459459628   -0.1900
     29 H29       -10.1197   -1.3708   52.5195 H       1  ZINC000459459628    0.0600
     30 H30        -8.3608   -1.4227   52.7876 H       1  ZINC000459459628    0.0600
     31 H31        -9.4444   -2.4109   53.7964 H       1  ZINC000459459628    0.0700
     32 H32       -11.1743    0.6499   55.1464 H       1  ZINC000459459628    0.0800
     33 H33       -11.5335   -0.8750   54.3014 H       1  ZINC000459459628    0.0900
     34 H34       -12.0083   -2.6931   55.6356 H       1  ZINC000459459628    0.1300
     35 H35       -11.8215   -3.9186   57.7628 H       1  ZINC000459459628    0.1300
     36 H36       -10.4181   -3.0276   59.5786 H       1  ZINC000459459628    0.1300
     37 H37        -9.3817    0.3144   57.1332 H       1  ZINC000459459628    0.1300
     38 H38       -10.9699    2.2457   53.6428 H       1  ZINC000459459628    0.0600
     39 H39       -10.1478    2.1665   52.0660 H       1  ZINC000459459628    0.0700
     40 H40       -11.1676    0.8117   52.6073 H       1  ZINC000459459628    0.0800
     41 H41        -8.7421    3.1528   52.4336 H       1  ZINC000459459628    0.4100
     42 H42        -6.6684    3.8228   54.8827 H       1  ZINC000459459628    0.1600
     43 H43        -3.2692    5.0895   52.5905 H       1  ZINC000459459628    0.1400
     44 H44        -4.2916    4.1540   50.5615 H       1  ZINC000459459628    0.1500
     45 H45        -7.4678    3.4339   48.6377 H       1  ZINC000459459628    0.1900
@<TRIPOS>BOND
     1     1     2    1
     2     1    29    1
     3     1    30    1
     4     1    31    1
     5     2     3    1
     6     2     4    1
     7     2    12    1
     8     4     5    1
     9     4    32    1
    10     4    33    1
    11     5    11   ar
    12     5     6   ar
    13     6     7   ar
    14     6    34    1
    15     7     8   ar
    16     7    35    1
    17     8     9   ar
    18     8    36    1
    19     9    10    1
    20     9    11   ar
    21    11    37    1
    22    12    13    1
    23    12    14   am
    24    13    38    1
    25    13    39    1
    26    13    40    1
    27    14    15    2
    28    14    16   am
    29    16    17    1
    30    16    41    1
    31    17    24   ar
    32    17    18   ar
    33    18    19   ar
    34    18    42    1
    35    19    20    1
    36    19    22   ar
    37    20    21    3
    38    22    23   ar
    39    22    43    1
    40    23    24   ar
    41    23    44    1
    42    24    25    1
    43    25    26    1
    44    26    27    1
    45    26    28    1
    46    26    45    1
@<TRIPOS>SUBSTRUCTURE
     1 ZINC000459459628        1 TEMP              0 ****  ****    0 ROOT


##########                                Name:    ZINC000899027326
##########                DOCK_Rotatable_Bonds:                   5
##########                         Heavy_Atoms:                  22
##########                    Molecular_Weight:             346.169
##########                DOCK_Rotatable_Bonds:                   5
##########                       Formal_Charge:           0.0300005
##########                     HBond_Acceptors:                   9
##########                        HBond_Donors:                   1
##########                         Heavy_Atoms:                  22
##########                          Grid_Score:          -26.816858
##########                     Grid_vdw_energy:          -24.261442
##########                      Grid_es_energy:           -2.555416
##########           Internal_energy_repulsive:           13.021619

@<TRIPOS>MOLECULE
ZINC000899027326
 35 36 1 0 0
SMALL
USER_CHARGES


@<TRIPOS>ATOM
      1 C1         -8.7143    5.6441   48.3880 C.3     1  ZINC000899027326   -0.1500
      2 C2         -9.0728    4.2925   49.0092 C.3     1  ZINC000899027326    0.1100
      3 H3         -9.3431    3.5752   48.2343 H       1  ZINC000899027326    0.1400
      4 C4         -7.9217    3.7672   49.8440 C.2     1  ZINC000899027326    0.5300
      5 O5         -6.8048    3.4927   49.4609 O.2     1  ZINC000899027326   -0.4500
      6 N6         -8.3982    3.6695   51.1009 N.am    1  ZINC000899027326   -0.3700
      7 N7         -7.6469    3.2196   52.1945 N.am    1  ZINC000899027326   -0.5000
      8 C8         -7.5732    1.9013   52.4648 C.2     1  ZINC000899027326    0.5200
      9 O9         -8.1561    1.1044   51.7605 O.2     1  ZINC000899027326   -0.4800
     10 C10        -6.7665    1.4175   53.6422 C.3     1  ZINC000899027326    0.0500
     11 O11        -7.4615    1.7218   54.8531 O.3     1  ZINC000899027326   -0.2700
     12 C12        -8.3205    0.7798   55.3252 C.ar    1  ZINC000899027326    0.1400
     13 C13        -8.7623   -0.2367   54.4922 C.ar    1  ZINC000899027326   -0.1900
     14 C14        -9.6355   -1.1935   54.9737 C.ar    1  ZINC000899027326   -0.0600
     15 C15       -10.0693   -1.1380   56.2861 C.ar    1  ZINC000899027326   -0.0600
     16 Cl16      -11.1657   -2.3417   56.8882 Cl      1  ZINC000899027326   -0.0500
     17 C17        -9.6300   -0.1246   57.1199 C.ar    1  ZINC000899027326   -0.0600
     18 C18        -8.7522    0.8310   56.6439 C.ar    1  ZINC000899027326   -0.0500
     19 Cl19       -8.2010    2.1023   57.6898 Cl      1  ZINC000899027326   -0.0300
     20 C20        -9.6769    4.0561   51.1754 C.2     1  ZINC000899027326    0.7000
     21 O21       -10.3236    4.0565   52.2044 O.2     1  ZINC000899027326   -0.5200
     22 N22       -10.1694    4.4434   49.9812 N.am    1  ZINC000899027326   -0.6200
     23 C23       -11.5264    4.9231   49.7079 C.3     1  ZINC000899027326    0.1200
     24 H24        -8.4352    6.3436   49.1759 H       1  ZINC000899027326    0.0700
     25 H25        -7.8775    5.5177   47.7011 H       1  ZINC000899027326    0.0900
     26 H26        -9.5749    6.0337   47.8443 H       1  ZINC000899027326    0.0900
     27 H27        -7.1797    3.8569   52.7571 H       1  ZINC000899027326    0.4300
     28 H28        -6.6235    0.3396   53.5664 H       1  ZINC000899027326    0.1100
     29 H29        -5.7958    1.9134   53.6460 H       1  ZINC000899027326    0.1100
     30 H30        -8.4244   -0.2806   53.4673 H       1  ZINC000899027326    0.1500
     31 H31        -9.9799   -1.9850   54.3247 H       1  ZINC000899027326    0.1500
     32 H32        -9.9697   -0.0829   58.1442 H       1  ZINC000899027326    0.1500
     33 H33       -12.1043    4.9242   50.6320 H       1  ZINC000899027326    0.0900
     34 H34       -11.4800    5.9356   49.3071 H       1  ZINC000899027326    0.0700
     35 H35       -12.0045    4.2662   48.9812 H       1  ZINC000899027326    0.0700
@<TRIPOS>BOND
     1     1     2    1
     2     1    24    1
     3     1    25    1
     4     1    26    1
     5     2     3    1
     6     2    22    1
     7     2     4    1
     8     4     5    2
     9     4     6   am
    10     6     7    1
    11     6    20   am
    12     7     8   am
    13     7    27    1
    14     8     9    2
    15     8    10    1
    16    10    11    1
    17    10    28    1
    18    10    29    1
    19    11    12    1
    20    12    18   ar
    21    12    13   ar
    22    13    14   ar
    23    13    30    1
    24    14    15   ar
    25    14    31    1
    26    15    16    1
    27    15    17   ar
    28    17    18   ar
    29    17    32    1
    30    18    19    1
    31    20    21    2
    32    20    22   am
    33    22    23    1
    34    23    33    1
    35    23    34    1
    36    23    35    1
@<TRIPOS>SUBSTRUCTURE
     1 ZINC000899027326        1 TEMP              0 ****  ****    0 ROOT


##########                                Name:    ZINC000543429378
##########                DOCK_Rotatable_Bonds:                   6
##########                         Heavy_Atoms:                  29
##########                    Molecular_Weight:             406.408
##########                DOCK_Rotatable_Bonds:                   6
##########                       Formal_Charge:           0.0100003
##########                     HBond_Acceptors:                   9
##########                        HBond_Donors:                   1
##########                         Heavy_Atoms:                  29
##########                          Grid_Score:          -26.816238
##########                     Grid_vdw_energy:          -26.083298
##########                      Grid_es_energy:           -0.732940
##########           Internal_energy_repulsive:           30.813591

@<TRIPOS>MOLECULE
ZINC000543429378
 50 53 1 0 0
SMALL
USER_CHARGES


@<TRIPOS>ATOM
      1 O1         -7.4045    0.6242   54.7783 O.2     1  ZINC000543429378   -0.5100
      2 C2         -7.2317    1.7972   54.5231 C.2     1  ZINC000543429378    0.5200
      3 N3         -7.8902    2.7431   55.2218 N.am    1  ZINC000543429378   -0.6600
      4 C4         -8.7776    2.3716   56.2378 C.ar    1  ZINC000543429378    0.1900
      5 C5        -10.1477    2.4173   56.0154 C.ar    1  ZINC000543429378   -0.1600
      6 C6        -11.0239    2.0500   57.0186 C.ar    1  ZINC000543429378   -0.0600
      7 C7        -10.5400    1.6369   58.2451 C.ar    1  ZINC000543429378   -0.2100
      8 C8         -9.1716    1.5893   58.4730 C.ar    1  ZINC000543429378    0.1300
      9 O9         -8.6970    1.1829   59.6798 O.3     1  ZINC000543429378   -0.3100
     10 C10        -8.9341   -0.1781   60.0452 C.3     1  ZINC000543429378    0.6000
     11 F11        -8.2439   -0.4709   61.2265 F       1  ZINC000543429378   -0.1600
     12 F12       -10.3047   -0.3754   60.2449 F       1  ZINC000543429378   -0.1300
     13 F13        -8.4858   -1.0205   59.0223 F       1  ZINC000543429378   -0.1600
     14 C14        -8.2895    1.9516   57.4674 C.ar    1  ZINC000543429378   -0.1300
     15 C15        -6.2759    2.1973   53.4288 C.3     1  ZINC000543429378    0.0700
     16 H16        -5.4074    1.5388   53.4352 H       1  ZINC000543429378    0.1200
     17 C17        -5.8254    3.6700   53.6317 C.3     1  ZINC000543429378   -0.1200
     18 C18        -5.7739    4.1864   52.1855 C.3     1  ZINC000543429378   -0.1000
     19 H19        -4.8673    3.8513   51.6816 H       1  ZINC000543429378    0.0900
     20 C20        -5.9634    5.6852   52.0251 C.3     1  ZINC000543429378   -0.1100
     21 C21        -6.0074    5.9812   50.5176 C.3     1  ZINC000543429378   -0.1200
     22 C22        -7.1280    5.2084   49.8284 C.3     1  ZINC000543429378   -0.1100
     23 C23        -7.0182    3.6991   50.1016 C.3     1  ZINC000543429378   -0.0900
     24 C24        -7.0333    3.4931   51.5984 C.3     1  ZINC000543429378    0.0700
     25 H25        -7.9145    3.9775   52.0190 H       1  ZINC000543429378    0.0900
     26 N26        -6.9571    2.1247   52.1097 N.3     1  ZINC000543429378   -0.4300
     27 C27        -8.2199    1.5744   52.2447 C.ar    1  ZINC000543429378    0.5000
     28 N28        -8.3648    0.2600   52.1612 N.ar    1  ZINC000543429378   -0.5300
     29 C29        -9.5576   -0.2980   52.2862 C.ar    1  ZINC000543429378    0.1800
     30 C30       -10.6622    0.5098   52.5066 C.ar    1  ZINC000543429378   -0.2500
     31 C31       -10.4748    1.8807   52.5885 C.ar    1  ZINC000543429378    0.1800
     32 N32        -9.2542    2.3740   52.4597 N.ar    1  ZINC000543429378   -0.5300
     33 H33        -7.7489    3.6813   55.0202 H       1  ZINC000543429378    0.4200
     34 H34       -10.5285    2.7406   55.0578 H       1  ZINC000543429378    0.1400
     35 H35       -12.0890    2.0863   56.8439 H       1  ZINC000543429378    0.1400
     36 H36       -11.2273    1.3511   59.0275 H       1  ZINC000543429378    0.1400
     37 H37        -7.2244    1.9150   57.6429 H       1  ZINC000543429378    0.1500
     38 H38        -6.5581    4.2247   54.2177 H       1  ZINC000543429378    0.0800
     39 H39        -4.8407    3.7158   54.0971 H       1  ZINC000543429378    0.0900
     40 H40        -6.8996    5.9926   52.4910 H       1  ZINC000543429378    0.0700
     41 H41        -5.1285    6.2157   52.4831 H       1  ZINC000543429378    0.0700
     42 H42        -6.1673    7.0491   50.3688 H       1  ZINC000543429378    0.0600
     43 H43        -5.0537    5.6995   50.0712 H       1  ZINC000543429378    0.0600
     44 H44        -8.0886    5.5686   50.1970 H       1  ZINC000543429378    0.0600
     45 H45        -7.0721    5.3815   48.7538 H       1  ZINC000543429378    0.0700
     46 H46        -7.8607    3.1779   49.6471 H       1  ZINC000543429378    0.0700
     47 H47        -6.0818    3.3161   49.6957 H       1  ZINC000543429378    0.0700
     48 H48        -9.6695   -1.3699   52.2169 H       1  ZINC000543429378    0.1600
     49 H49       -11.6475    0.0804   52.6120 H       1  ZINC000543429378    0.1400
     50 H50       -11.3146    2.5379   52.7592 H       1  ZINC000543429378    0.1600
@<TRIPOS>BOND
     1     1     2    2
     2     2     3   am
     3     2    15    1
     4     3     4    1
     5     3    33    1
     6     4    14   ar
     7     4     5   ar
     8     5     6   ar
     9     5    34    1
    10     6     7   ar
    11     6    35    1
    12     7     8   ar
    13     7    36    1
    14     8     9    1
    15     8    14   ar
    16     9    10    1
    17    10    11    1
    18    10    12    1
    19    10    13    1
    20    14    37    1
    21    15    16    1
    22    15    26    1
    23    15    17    1
    24    17    18    1
    25    17    38    1
    26    17    39    1
    27    18    19    1
    28    18    24    1
    29    18    20    1
    30    20    21    1
    31    20    40    1
    32    20    41    1
    33    21    22    1
    34    21    42    1
    35    21    43    1
    36    22    23    1
    37    22    44    1
    38    22    45    1
    39    23    24    1
    40    23    46    1
    41    23    47    1
    42    24    25    1
    43    24    26    1
    44    26    27    1
    45    27    32   ar
    46    27    28   ar
    47    28    29   ar
    48    29    30   ar
    49    29    48    1
    50    30    31   ar
    51    30    49    1
    52    31    32   ar
    53    31    50    1
@<TRIPOS>SUBSTRUCTURE
     1 ZINC000543429378        1 TEMP              0 ****  ****    0 ROOT


##########                                Name:    ZINC000416583757
##########                DOCK_Rotatable_Bonds:                   7
##########                         Heavy_Atoms:                  20
##########                    Molecular_Weight:             380.693
##########                DOCK_Rotatable_Bonds:                   7
##########                       Formal_Charge:         1.04308e-07
##########                     HBond_Acceptors:                   7
##########                        HBond_Donors:                   1
##########                         Heavy_Atoms:                  20
##########                          Grid_Score:          -26.752747
##########                     Grid_vdw_energy:          -24.925646
##########                      Grid_es_energy:           -1.827101
##########           Internal_energy_repulsive:            7.385679

@<TRIPOS>MOLECULE
ZINC000416583757
 35 35 1 0 0
SMALL
USER_CHARGES


@<TRIPOS>ATOM
      1 C1        -10.6768    3.5619   62.3876 C.3     1  ZINC000416583757   -0.1500
      2 C2        -10.3064    2.0780   62.3506 C.3     1  ZINC000416583757   -0.0200
      3 H3         -9.9084    1.7785   63.3202 H       1  ZINC000416583757    0.1200
      4 C4        -11.5054    1.2805   62.0448 C.1     1  ZINC000416583757    0.2100
      5 N5        -12.4306    0.6652   61.8088 N.1     1  ZINC000416583757   -0.4200
      6 C6         -9.2486    1.8431   61.2705 C.3     1  ZINC000416583757    0.1300
      7 N7         -8.8384    0.4367   61.2865 N.am    1  ZINC000416583757   -1.0100
      8 C8         -8.4508   -0.1989   62.5483 C.3     1  ZINC000416583757    0.0800
      9 S9         -8.8126   -0.4344   59.8784 S.o2    1  ZINC000416583757    2.7800
     10 O10        -8.0202    0.3081   58.9617 O.2     1  ZINC000416583757   -0.9700
     11 O11        -8.5261   -1.7777   60.2428 O.2     1  ZINC000416583757   -0.9700
     12 N12       -10.3538   -0.4327   59.2726 N.am    1  ZINC000416583757   -1.1300
     13 C13       -10.6488   -1.1311   58.0190 C.3     1  ZINC000416583757    0.1600
     14 C14       -12.0715   -1.6274   58.0432 C.ar    1  ZINC000416583757   -0.0800
     15 C15       -13.0668   -0.8445   58.5970 C.ar    1  ZINC000416583757   -0.0800
     16 C16       -14.3734   -1.2996   58.6190 C.ar    1  ZINC000416583757   -0.0300
     17 Cl17      -15.6237   -0.3160   59.3140 Cl      1  ZINC000416583757   -0.0500
     18 C18       -14.6831   -2.5380   58.0867 C.ar    1  ZINC000416583757   -0.0700
     19 C19       -13.6865   -3.3210   57.5326 C.ar    1  ZINC000416583757   -0.0800
     20 Br20      -14.1090   -5.0144   56.8046 Br      1  ZINC000416583757   -0.0300
     21 C21       -12.3816   -2.8630   57.5064 C.ar    1  ZINC000416583757   -0.0700
     22 H22       -11.5142    3.7105   63.0692 H       1  ZINC000416583757    0.0700
     23 H23        -9.8205    4.1416   62.7323 H       1  ZINC000416583757    0.0800
     24 H24       -10.9595    3.8910   61.3876 H       1  ZINC000416583757    0.0700
     25 H25        -9.6657    2.0887   60.2938 H       1  ZINC000416583757    0.0900
     26 H26        -8.3832    2.4763   61.4657 H       1  ZINC000416583757    0.1000
     27 H27        -9.3301   -0.6393   63.0184 H       1  ZINC000416583757    0.0700
     28 H28        -7.7151   -0.9786   62.3515 H       1  ZINC000416583757    0.0800
     29 H29        -8.0189    0.5484   63.2140 H       1  ZINC000416583757    0.0800
     30 H30       -11.0611    0.0306   59.7477 H       1  ZINC000416583757    0.4200
     31 H31       -10.5172   -0.4458   57.1816 H       1  ZINC000416583757    0.0800
     32 H32        -9.9707   -1.9771   57.9060 H       1  ZINC000416583757    0.1000
     33 H33       -12.8246    0.1223   59.0128 H       1  ZINC000416583757    0.1500
     34 H34       -15.7027   -2.8939   58.1039 H       1  ZINC000416583757    0.1500
     35 H35       -11.6034   -3.4744   57.0738 H       1  ZINC000416583757    0.1400
@<TRIPOS>BOND
     1     1     2    1
     2     1    22    1
     3     1    23    1
     4     1    24    1
     5     2     3    1
     6     2     4    1
     7     2     6    1
     8     4     5    3
     9     6     7    1
    10     6    25    1
    11     6    26    1
    12     7     8    1
    13     7     9   am
    14     8    27    1
    15     8    28    1
    16     8    29    1
    17     9    10    2
    18     9    11    2
    19     9    12   am
    20    12    13    1
    21    12    30    1
    22    13    14    1
    23    13    31    1
    24    13    32    1
    25    14    21   ar
    26    14    15   ar
    27    15    16   ar
    28    15    33    1
    29    16    17    1
    30    16    18   ar
    31    18    19   ar
    32    18    34    1
    33    19    20    1
    34    19    21   ar
    35    21    35    1
@<TRIPOS>SUBSTRUCTURE
     1 ZINC000416583757        1 TEMP              0 ****  ****    0 ROOT


##########                                Name:    ZINC000444542200
##########                DOCK_Rotatable_Bonds:                   8
##########                         Heavy_Atoms:                  28
##########                    Molecular_Weight:             404.337
##########                DOCK_Rotatable_Bonds:                   8
##########                       Formal_Charge:           0.0200001
##########                     HBond_Acceptors:                  10
##########                        HBond_Donors:                   1
##########                         Heavy_Atoms:                  28
##########                          Grid_Score:          -26.730295
##########                     Grid_vdw_energy:          -26.845861
##########                      Grid_es_energy:            0.115567
##########           Internal_energy_repulsive:           22.665174

@<TRIPOS>MOLECULE
ZINC000444542200
 45 46 1 0 0
SMALL
USER_CHARGES


@<TRIPOS>ATOM
      1 C1         -7.4269    0.0927   65.7349 C.3     1  ZINC000444542200    0.0300
      2 O2         -7.5224   -0.0240   64.3138 O.3     1  ZINC000444542200   -0.3100
      3 C3         -8.7548    0.1339   63.7633 C.ar    1  ZINC000444542200    0.1800
      4 C4         -8.9496   -0.1234   62.4149 C.ar    1  ZINC000444542200   -0.1700
      5 C5        -10.2086    0.0375   61.8528 C.ar    1  ZINC000444542200    0.2300
      6 N6        -10.4060   -0.2225   60.4921 N.am    1  ZINC000444542200   -0.5800
      7 C7        -10.8925   -1.5352   60.0602 C.3     1  ZINC000444542200    0.0700
      8 C8        -10.1487    0.7346   59.5788 C.2     1  ZINC000444542200    0.7100
      9 O9         -9.7451    1.8242   59.9372 O.2     1  ZINC000444542200   -0.5500
     10 N10       -10.3388    0.4841   58.2683 N.am    1  ZINC000444542200   -0.7300
     11 C11       -10.0573    1.5240   57.2754 C.3     1  ZINC000444542200    0.1700
     12 H12        -9.4127    2.2836   57.7176 H       1  ZINC000444542200    0.1500
     13 C13        -9.3660    0.9089   56.0860 C.ar    1  ZINC000444542200   -0.1300
     14 C14        -8.1644    1.4270   55.6409 C.ar    1  ZINC000444542200   -0.0800
     15 C15        -7.5289    0.8638   54.5497 C.ar    1  ZINC000444542200   -0.0900
     16 C16        -8.0938   -0.2185   53.9019 C.ar    1  ZINC000444542200   -0.1100
     17 C17        -9.2969   -0.7397   54.3451 C.ar    1  ZINC000444542200    0.0800
     18 F18        -9.8497   -1.7976   53.7124 F       1  ZINC000444542200   -0.1200
     19 C19        -9.9314   -0.1785   55.4428 C.ar    1  ZINC000444542200    0.1000
     20 F20       -11.1059   -0.6855   55.8774 F       1  ZINC000444542200   -0.1100
     21 C21       -11.3702    2.1681   56.8254 C.3     1  ZINC000444542200    0.4400
     22 F22       -11.4181    2.2019   55.4276 F       1  ZINC000444542200   -0.1600
     23 F23       -12.4474    1.4192   57.3110 F       1  ZINC000444542200   -0.1700
     24 F24       -11.4455    3.4723   57.3262 F       1  ZINC000444542200   -0.1800
     25 C25       -11.2716    0.4560   62.6412 C.ar    1  ZINC000444542200   -0.1900
     26 C26       -11.0754    0.7130   63.9894 C.ar    1  ZINC000444542200    0.1800
     27 O27       -12.1160    1.1227   64.7614 O.3     1  ZINC000444542200   -0.3100
     28 C28       -13.3687    1.3285   64.1055 C.3     1  ZINC000444542200    0.0300
     29 C29        -9.8185    0.5469   64.5515 C.ar    1  ZINC000444542200   -0.2900
     30 H30        -7.7595    1.0845   66.0411 H       1  ZINC000444542200    0.0600
     31 H31        -8.0565   -0.6630   66.2047 H       1  ZINC000444542200    0.0600
     32 H32        -6.3916   -0.0544   66.0427 H       1  ZINC000444542200    0.1000
     33 H33        -8.1220   -0.4487   61.8021 H       1  ZINC000444542200    0.1300
     34 H34       -11.9821   -1.5269   60.0300 H       1  ZINC000444542200    0.0700
     35 H35       -10.5031   -1.7582   59.0669 H       1  ZINC000444542200    0.0700
     36 H36       -10.5543   -2.2971   60.7625 H       1  ZINC000444542200    0.0900
     37 H37       -10.6620   -0.3846   57.9823 H       1  ZINC000444542200    0.4100
     38 H38        -7.7217    2.2729   56.1456 H       1  ZINC000444542200    0.1400
     39 H39        -6.5903    1.2703   54.2032 H       1  ZINC000444542200    0.1500
     40 H40        -7.5966   -0.6573   53.0494 H       1  ZINC000444542200    0.1500
     41 H41       -12.2513    0.5818   62.2043 H       1  ZINC000444542200    0.1400
     42 H42       -13.6951    0.3961   63.6447 H       1  ZINC000444542200    0.0600
     43 H43       -14.1115    1.6531   64.8343 H       1  ZINC000444542200    0.1000
     44 H44       -13.2553    2.0933   63.3371 H       1  ZINC000444542200    0.0600
     45 H45        -9.6661    0.7473   65.6018 H       1  ZINC000444542200    0.1400
@<TRIPOS>BOND
     1     1     2    1
     2     1    30    1
     3     1    31    1
     4     1    32    1
     5     2     3    1
     6     3    29   ar
     7     3     4   ar
     8     4     5   ar
     9     4    33    1
    10     5     6    1
    11     5    25   ar
    12     6     7    1
    13     6     8   am
    14     7    34    1
    15     7    35    1
    16     7    36    1
    17     8     9    2
    18     8    10   am
    19    10    11    1
    20    10    37    1
    21    11    12    1
    22    11    13    1
    23    11    21    1
    24    13    19   ar
    25    13    14   ar
    26    14    15   ar
    27    14    38    1
    28    15    16   ar
    29    15    39    1
    30    16    17   ar
    31    16    40    1
    32    17    18    1
    33    17    19   ar
    34    19    20    1
    35    21    22    1
    36    21    23    1
    37    21    24    1
    38    25    26   ar
    39    25    41    1
    40    26    27    1
    41    26    29   ar
    42    27    28    1
    43    28    42    1
    44    28    43    1
    45    28    44    1
    46    29    45    1
@<TRIPOS>SUBSTRUCTURE
     1 ZINC000444542200        1 TEMP              0 ****  ****    0 ROOT


##########                                Name:    ZINC001074839487
##########                DOCK_Rotatable_Bonds:                   7
##########                         Heavy_Atoms:                  25
##########                    Molecular_Weight:             344.454
##########                DOCK_Rotatable_Bonds:                   7
##########                       Formal_Charge:          -0.0500005
##########                     HBond_Acceptors:                   5
##########                        HBond_Donors:                   1
##########                         Heavy_Atoms:                  25
##########                          Grid_Score:          -26.710915
##########                     Grid_vdw_energy:          -27.355745
##########                      Grid_es_energy:            0.644830
##########           Internal_energy_repulsive:           88.875237

@<TRIPOS>MOLECULE
ZINC001074839487
 53 55 1 0 0
SMALL
USER_CHARGES


@<TRIPOS>ATOM
      1 C1         -8.3518    5.8629   47.7795 C.3     1  ZINC001074839487   -0.1500
      2 C2         -8.5807    5.7432   49.2875 C.3     1  ZINC001074839487   -0.1300
      3 C3         -7.8680    4.4959   49.8141 C.3     1  ZINC001074839487   -0.1100
      4 C4         -8.0929    4.3787   51.3230 C.3     1  ZINC001074839487   -0.1400
      5 C5         -7.6070    3.0345   51.8004 C.2     1  ZINC001074839487    0.5100
      6 O6         -6.8217    2.3999   51.1285 O.2     1  ZINC001074839487   -0.5400
      7 N7         -8.0452    2.5374   52.9740 N.am    1  ZINC001074839487   -0.7300
      8 C8         -7.5743    1.2299   53.4372 C.3     1  ZINC001074839487    0.1400
      9 H9         -6.5212    1.1118   53.1819 H       1  ZINC001074839487    0.0900
     10 C10        -7.7446    1.1350   54.9552 C.3     1  ZINC001074839487   -0.1500
     11 C11        -9.2206    1.3356   55.3129 C.3     1  ZINC001074839487    0.0700
     12 N12       -10.0266    0.3698   54.5538 N.am    1  ZINC001074839487   -0.6000
     13 C13       -10.8902   -0.4503   55.1849 C.2     1  ZINC001074839487    0.5600
     14 O14       -11.5515   -1.2449   54.5456 O.2     1  ZINC001074839487   -0.5200
     15 C15       -11.0333   -0.3832   56.6549 C.ar    1  ZINC001074839487   -0.1300
     16 C16       -11.8536    0.5851   57.2356 C.ar    1  ZINC001074839487   -0.1000
     17 C17       -11.9836    0.6434   58.6086 C.ar    1  ZINC001074839487   -0.1000
     18 C18       -11.3035   -0.2546   59.4075 C.ar    1  ZINC001074839487   -0.1100
     19 C19       -11.2399   -0.4443   60.9055 C.3     1  ZINC001074839487    0.0900
     20 O20       -10.0666   -1.2398   61.1543 O.3     1  ZINC001074839487   -0.3600
     21 C21        -9.8953   -2.0321   59.9650 C.3     1  ZINC001074839487    0.0900
     22 C22       -10.4861   -1.2199   58.8361 C.ar    1  ZINC001074839487   -0.1400
     23 C23       -10.3525   -1.2922   57.4679 C.ar    1  ZINC001074839487   -0.0400
     24 C24        -9.8729    0.3144   53.0937 C.3     1  ZINC001074839487    0.1500
     25 H25       -10.2306    1.2451   52.6531 H       1  ZINC001074839487    0.0700
     26 C26       -10.6774   -0.8622   52.5375 C.3     1  ZINC001074839487   -0.1400
     27 C27        -8.3897    0.1254   52.7608 C.3     1  ZINC001074839487   -0.1400
     28 H28        -7.2834    5.9434   47.5795 H       1  ZINC001074839487    0.0500
     29 H29        -8.8596    6.7515   47.4044 H       1  ZINC001074839487    0.0500
     30 H30        -8.7494    4.9793   47.2803 H       1  ZINC001074839487    0.0500
     31 H31        -8.1832    6.6268   49.7867 H       1  ZINC001074839487    0.0600
     32 H32        -9.6492    5.6627   49.4876 H       1  ZINC001074839487    0.0600
     33 H33        -8.2679    3.6119   49.3174 H       1  ZINC001074839487    0.0700
     34 H34        -6.7999    4.5748   49.6110 H       1  ZINC001074839487    0.0700
     35 H35        -7.5412    5.1673   51.8348 H       1  ZINC001074839487    0.0900
     36 H36        -9.1561    4.4790   51.5406 H       1  ZINC001074839487    0.0900
     37 H37        -8.6725    3.0455   53.5119 H       1  ZINC001074839487    0.4000
     38 H38        -7.4175    0.1533   55.2973 H       1  ZINC001074839487    0.0800
     39 H39        -7.1452    1.9073   55.4374 H       1  ZINC001074839487    0.0800
     40 H40        -9.3633    1.1711   56.3809 H       1  ZINC001074839487    0.1200
     41 H41        -9.5251    2.3495   55.0533 H       1  ZINC001074839487    0.0700
     42 H42       -12.3863    1.2876   56.6116 H       1  ZINC001074839487    0.1500
     43 H43       -12.6184    1.3921   59.0587 H       1  ZINC001074839487    0.1400
     44 H44       -11.1513    0.5215   61.4029 H       1  ZINC001074839487    0.1000
     45 H45       -12.1296   -0.9676   61.2558 H       1  ZINC001074839487    0.0800
     46 H46        -8.8358   -2.2126   59.7834 H       1  ZINC001074839487    0.1000
     47 H47       -10.4264   -2.9787   60.0647 H       1  ZINC001074839487    0.0800
     48 H48        -9.7199   -2.0469   57.0245 H       1  ZINC001074839487    0.1400
     49 H49       -11.7416   -0.6748   52.6809 H       1  ZINC001074839487    0.0800
     50 H50       -10.4684   -0.9746   51.4736 H       1  ZINC001074839487    0.0500
     51 H51       -10.3954   -1.7753   53.0616 H       1  ZINC001074839487    0.0700
     52 H52        -8.2493    0.1789   51.6813 H       1  ZINC001074839487    0.0900
     53 H53        -8.0564   -0.8469   53.1237 H       1  ZINC001074839487    0.0900
@<TRIPOS>BOND
     1     1     2    1
     2     1    28    1
     3     1    29    1
     4     1    30    1
     5     2     3    1
     6     2    31    1
     7     2    32    1
     8     3     4    1
     9     3    33    1
    10     3    34    1
    11     4     5    1
    12     4    35    1
    13     4    36    1
    14     5     6    2
    15     5     7   am
    16     7     8    1
    17     7    37    1
    18     8     9    1
    19     8    27    1
    20     8    10    1
    21    10    11    1
    22    10    38    1
    23    10    39    1
    24    11    12    1
    25    11    40    1
    26    11    41    1
    27    12    13   am
    28    12    24    1
    29    13    14    2
    30    13    15    1
    31    15    23   ar
    32    15    16   ar
    33    16    17   ar
    34    16    42    1
    35    17    18   ar
    36    17    43    1
    37    18    22   ar
    38    18    19    1
    39    19    20    1
    40    19    44    1
    41    19    45    1
    42    20    21    1
    43    21    22    1
    44    21    46    1
    45    21    47    1
    46    22    23   ar
    47    23    48    1
    48    24    25    1
    49    24    26    1
    50    24    27    1
    51    26    49    1
    52    26    50    1
    53    26    51    1
    54    27    52    1
    55    27    53    1
@<TRIPOS>SUBSTRUCTURE
     1 ZINC001074839487        1 TEMP              0 ****  ****    0 ROOT


##########                                Name:    ZINC000942890482
##########                DOCK_Rotatable_Bonds:                   8
##########                         Heavy_Atoms:                  25
##########                    Molecular_Weight:             346.445
##########                DOCK_Rotatable_Bonds:                   8
##########                       Formal_Charge:          -0.0100004
##########                     HBond_Acceptors:                   5
##########                        HBond_Donors:                   0
##########                         Heavy_Atoms:                  25
##########                          Grid_Score:          -26.704674
##########                     Grid_vdw_energy:          -26.352571
##########                      Grid_es_energy:           -0.352103
##########           Internal_energy_repulsive:           21.507643

@<TRIPOS>MOLECULE
ZINC000942890482
 52 54 1 0 0
SMALL
USER_CHARGES


@<TRIPOS>ATOM
      1 C1        -14.3015   -4.6907   56.9171 C.3     1  ZINC000942890482   -0.1700
      2 C2        -14.7170   -3.2188   56.8733 C.3     1  ZINC000942890482    0.1000
      3 N3        -13.8829   -2.4483   57.7990 N.am    1  ZINC000942890482   -0.6000
      4 C4        -14.0681   -2.5643   59.1290 C.2     1  ZINC000942890482    0.5700
      5 O5        -14.9273   -3.3083   59.5603 O.2     1  ZINC000942890482   -0.5100
      6 C6        -13.2271   -1.7874   60.0624 C.ar    1  ZINC000942890482   -0.1400
      7 C7        -11.9376   -2.2239   60.3728 C.ar    1  ZINC000942890482   -0.0600
      8 C8        -11.1568   -1.4947   61.2441 C.ar    1  ZINC000942890482   -0.1600
      9 C9        -11.6498   -0.3301   61.8119 C.ar    1  ZINC000942890482    0.1300
     10 F10       -10.8806    0.3808   62.6652 F       1  ZINC000942890482   -0.1300
     11 C11       -12.9296    0.1082   61.5067 C.ar    1  ZINC000942890482   -0.1600
     12 C12       -13.7169   -0.6104   60.6331 C.ar    1  ZINC000942890482   -0.0100
     13 C13       -15.1073   -0.1329   60.3023 C.3     1  ZINC000942890482   -0.1200
     14 C14       -12.8475   -1.5517   57.2790 C.3     1  ZINC000942890482    0.1400
     15 H15       -12.1973   -1.2024   58.0811 H       1  ZINC000942890482    0.1100
     16 C16       -13.4783   -0.3577   56.5148 C.3     1  ZINC000942890482   -0.1500
     17 C17       -12.3686    0.0403   55.5190 C.3     1  ZINC000942890482    0.1100
     18 N18       -11.4987   -1.1319   55.3434 N.am    1  ZINC000942890482   -0.6200
     19 C19       -10.3988   -1.1845   54.5662 C.2     1  ZINC000942890482    0.5300
     20 O20        -9.7544   -2.2095   54.4958 O.2     1  ZINC000942890482   -0.5400
     21 C21        -9.9695    0.0306   53.7849 C.3     1  ZINC000942890482   -0.1300
     22 C22        -9.0113    0.8697   54.6327 C.3     1  ZINC000942890482   -0.0700
     23 C23        -8.5538    2.0888   53.8294 C.3     1  ZINC000942890482   -0.1600
     24 C24        -7.0530    2.3830   53.7851 C.3     1  ZINC000942890482   -0.1800
     25 C25        -7.7616    1.8324   52.5458 C.3     1  ZINC000942890482   -0.1800
     26 C26       -12.0275   -2.2404   56.1597 C.3     1  ZINC000942890482    0.0900
     27 H27       -13.2552   -4.7818   56.6253 H       1  ZINC000942890482    0.0600
     28 H28       -14.4312   -5.0749   57.9289 H       1  ZINC000942890482    0.0600
     29 H29       -14.9221   -5.2640   56.2285 H       1  ZINC000942890482    0.0700
     30 H30       -14.5872   -2.8347   55.8616 H       1  ZINC000942890482    0.0900
     31 H31       -15.7632   -3.1277   57.1652 H       1  ZINC000942890482    0.0900
     32 H32       -11.5527   -3.1313   59.9313 H       1  ZINC000942890482    0.1400
     33 H33       -10.1594   -1.8317   61.4852 H       1  ZINC000942890482    0.1400
     34 H34       -13.3088    1.0163   61.9518 H       1  ZINC000942890482    0.1400
     35 H35       -15.0600    0.5835   59.4821 H       1  ZINC000942890482    0.0900
     36 H36       -15.7229   -0.9828   60.0074 H       1  ZINC000942890482    0.0700
     37 H37       -15.5450    0.3461   61.1783 H       1  ZINC000942890482    0.0700
     38 H38       -14.3778   -0.6711   55.9849 H       1  ZINC000942890482    0.1000
     39 H39       -13.6975    0.4640   57.1965 H       1  ZINC000942890482    0.0900
     40 H40       -12.8112    0.3200   54.5630 H       1  ZINC000942890482    0.0700
     41 H41       -11.7915    0.8733   55.9205 H       1  ZINC000942890482    0.0700
     42 H42        -9.4654   -0.2845   52.8713 H       1  ZINC000942890482    0.0900
     43 H43       -10.8456    0.6266   53.5295 H       1  ZINC000942890482    0.0900
     44 H44        -9.5216    1.2011   55.5371 H       1  ZINC000942890482    0.0700
     45 H45        -8.1444    0.2676   54.9045 H       1  ZINC000942890482    0.0700
     46 H46        -9.2339    2.9407   53.8395 H       1  ZINC000942890482    0.1000
     47 H47        -6.7454    3.4285   53.7660 H       1  ZINC000942890482    0.0900
     48 H48        -6.3916    1.7080   54.3281 H       1  ZINC000942890482    0.0900
     49 H49        -7.5664    0.7952   52.2736 H       1  ZINC000942890482    0.0900
     50 H50        -7.9202    2.5157   51.7116 H       1  ZINC000942890482    0.0900
     51 H51       -11.2097   -2.8194   56.5885 H       1  ZINC000942890482    0.0800
     52 H52       -12.6721   -2.8808   55.5576 H       1  ZINC000942890482    0.0900
@<TRIPOS>BOND
     1     1     2    1
     2     1    27    1
     3     1    28    1
     4     1    29    1
     5     2     3    1
     6     2    30    1
     7     2    31    1
     8     3     4   am
     9     3    14    1
    10     4     5    2
    11     4     6    1
    12     6    12   ar
    13     6     7   ar
    14     7     8   ar
    15     7    32    1
    16     8     9   ar
    17     8    33    1
    18     9    10    1
    19     9    11   ar
    20    11    12   ar
    21    11    34    1
    22    12    13    1
    23    13    35    1
    24    13    36    1
    25    13    37    1
    26    14    15    1
    27    14    26    1
    28    14    16    1
    29    16    17    1
    30    16    38    1
    31    16    39    1
    32    17    18    1
    33    17    40    1
    34    17    41    1
    35    18    19   am
    36    18    26    1
    37    19    20    2
    38    19    21    1
    39    21    22    1
    40    21    42    1
    41    21    43    1
    42    22    23    1
    43    22    44    1
    44    22    45    1
    45    23    25    1
    46    23    24    1
    47    23    46    1
    48    24    25    1
    49    24    47    1
    50    24    48    1
    51    25    49    1
    52    25    50    1
    53    26    51    1
    54    26    52    1
@<TRIPOS>SUBSTRUCTURE
     1 ZINC000942890482        1 TEMP              0 ****  ****    0 ROOT


##########                                Name:    ZINC000864477301
##########                DOCK_Rotatable_Bonds:                   6
##########                         Heavy_Atoms:                  26
##########                    Molecular_Weight:             393.891
##########                DOCK_Rotatable_Bonds:                   6
##########                       Formal_Charge:         -0.00999978
##########                     HBond_Acceptors:                   7
##########                        HBond_Donors:                   1
##########                         Heavy_Atoms:                  26
##########                          Grid_Score:          -26.702013
##########                     Grid_vdw_energy:          -25.501108
##########                      Grid_es_energy:           -1.200905
##########           Internal_energy_repulsive:            8.353524

@<TRIPOS>MOLECULE
ZINC000864477301
 46 47 1 0 0
SMALL
USER_CHARGES


@<TRIPOS>ATOM
      1 C1         -9.3803    5.7249   51.2443 C.3     1  ZINC000864477301   -0.1500
      2 C2         -9.2526    4.6548   50.1584 C.3     1  ZINC000864477301    0.0600
      3 O3         -7.9319    4.7280   49.5596 O.3     1  ZINC000864477301   -0.3500
      4 C4         -7.0643    3.7452   49.8696 C.2     1  ZINC000864477301    0.5100
      5 O5         -6.7012    2.9633   49.0138 O.2     1  ZINC000864477301   -0.5000
      6 C6         -6.5546    3.6181   51.2502 C.ar    1  ZINC000864477301   -0.1400
      7 C7         -5.6523    4.5570   51.7537 C.ar    1  ZINC000864477301   -0.0300
      8 C8         -5.1801    4.4323   53.0441 C.ar    1  ZINC000864477301   -0.1500
      9 C9         -5.5984    3.3796   53.8383 C.ar    1  ZINC000864477301   -0.0100
     10 C10        -6.4925    2.4454   53.3456 C.ar    1  ZINC000864477301   -0.4900
     11 S11        -7.0185    1.1086   54.3659 S.o     1  ZINC000864477301    1.3800
     12 O12        -7.4134    0.1223   53.4222 O.2     1  ZINC000864477301   -0.8100
     13 C13        -8.4885    1.7789   55.1908 C.3     1  ZINC000864477301   -0.4600
     14 H14        -8.1968    2.6070   55.8366 H       1  ZINC000864477301    0.1400
     15 C15        -9.4809    2.2776   54.1387 C.3     1  ZINC000864477301   -0.1400
     16 C16        -9.1355    0.6993   56.0197 C.2     1  ZINC000864477301    0.5500
     17 O17        -9.2052   -0.4337   55.5923 O.2     1  ZINC000864477301   -0.5100
     18 N18        -9.6367    0.9927   57.2358 N.am    1  ZINC000864477301   -0.6800
     19 C19       -10.2376   -0.0101   58.0058 C.ar    1  ZINC000864477301    0.1400
     20 C20        -9.5661   -0.5465   59.0959 C.ar    1  ZINC000864477301   -0.0600
     21 C21        -8.1887   -0.0499   59.4521 C.3     1  ZINC000864477301   -0.1100
     22 C22       -10.1619   -1.5358   59.8542 C.ar    1  ZINC000864477301   -0.1100
     23 C23       -11.4258   -1.9921   59.5289 C.ar    1  ZINC000864477301   -0.1000
     24 C24       -12.0980   -1.4606   58.4433 C.ar    1  ZINC000864477301   -0.1100
     25 C25       -11.5103   -0.4669   57.6840 C.ar    1  ZINC000864477301   -0.0200
     26 Cl26      -12.3546    0.2004   56.3219 Cl      1  ZINC000864477301   -0.0600
     27 C27        -6.9773    2.5615   52.0596 C.ar    1  ZINC000864477301    0.0100
     28 H28        -8.6240    5.5567   52.0110 H       1  ZINC000864477301    0.0700
     29 H29        -9.2362    6.7106   50.8018 H       1  ZINC000864477301    0.0700
     30 H30       -10.3718    5.6699   51.6938 H       1  ZINC000864477301    0.0800
     31 H31        -9.3967    3.6691   50.6008 H       1  ZINC000864477301    0.0700
     32 H32       -10.0089    4.8229   49.3917 H       1  ZINC000864477301    0.0700
     33 H33        -5.3244    5.3789   51.1345 H       1  ZINC000864477301    0.1400
     34 H34        -4.4821    5.1578   53.4348 H       1  ZINC000864477301    0.1400
     35 H35        -5.2250    3.2862   54.8474 H       1  ZINC000864477301    0.1500
     36 H36       -10.3642    2.6804   54.6344 H       1  ZINC000864477301    0.0700
     37 H37        -9.0130    3.0585   53.5391 H       1  ZINC000864477301    0.0700
     38 H38        -9.7727    1.4495   53.4928 H       1  ZINC000864477301    0.0700
     39 H39        -9.5811    1.8988   57.5777 H       1  ZINC000864477301    0.4100
     40 H40        -8.2722    0.7862   60.1465 H       1  ZINC000864477301    0.0800
     41 H41        -7.6217   -0.8550   59.9194 H       1  ZINC000864477301    0.0700
     42 H42        -7.6757    0.2785   58.5481 H       1  ZINC000864477301    0.0700
     43 H43        -9.6396   -1.9536   60.7021 H       1  ZINC000864477301    0.1400
     44 H44       -11.8889   -2.7655   60.1235 H       1  ZINC000864477301    0.1400
     45 H45       -13.0852   -1.8195   58.1915 H       1  ZINC000864477301    0.1400
     46 H46        -7.6754    1.8320   51.6763 H       1  ZINC000864477301    0.1400
@<TRIPOS>BOND
     1     1     2    1
     2     1    28    1
     3     1    29    1
     4     1    30    1
     5     2     3    1
     6     2    31    1
     7     2    32    1
     8     3     4    1
     9     4     5    2
    10     4     6    1
    11     6    27   ar
    12     6     7   ar
    13     7     8   ar
    14     7    33    1
    15     8     9   ar
    16     8    34    1
    17     9    10   ar
    18     9    35    1
    19    10    11    1
    20    10    27   ar
    21    11    12    2
    22    11    13    1
    23    13    14    1
    24    13    15    1
    25    13    16    1
    26    15    36    1
    27    15    37    1
    28    15    38    1
    29    16    17    2
    30    16    18   am
    31    18    19    1
    32    18    39    1
    33    19    25   ar
    34    19    20   ar
    35    20    21    1
    36    20    22   ar
    37    21    40    1
    38    21    41    1
    39    21    42    1
    40    22    23   ar
    41    22    43    1
    42    23    24   ar
    43    23    44    1
    44    24    25   ar
    45    24    45    1
    46    25    26    1
    47    27    46    1
@<TRIPOS>SUBSTRUCTURE
     1 ZINC000864477301        1 TEMP              0 ****  ****    0 ROOT


##########                                Name:    ZINC000477669194
##########                DOCK_Rotatable_Bonds:                   6
##########                         Heavy_Atoms:                  26
##########                    Molecular_Weight:             387.483
##########                DOCK_Rotatable_Bonds:                   6
##########                       Formal_Charge:         4.47035e-07
##########                     HBond_Acceptors:                   8
##########                        HBond_Donors:                   2
##########                         Heavy_Atoms:                  26
##########                          Grid_Score:          -26.659464
##########                     Grid_vdw_energy:          -25.991447
##########                      Grid_es_energy:           -0.668017
##########           Internal_energy_repulsive:           10.110959

@<TRIPOS>MOLECULE
ZINC000477669194
 43 45 1 0 0
SMALL
USER_CHARGES


@<TRIPOS>ATOM
      1 C1         -6.6867    3.0069   57.6483 C.3     1  ZINC000477669194   -0.0800
      2 C2         -7.7968    2.1901   58.2580 C.2     1  ZINC000477669194    0.0500
      3 N3         -8.3839    1.2006   57.6787 N.2     1  ZINC000477669194   -0.4900
      4 C4         -9.3432    0.5867   58.3561 C.2     1  ZINC000477669194    0.1200
      5 C5        -10.1029   -0.5660   57.8143 C.ar    1  ZINC000477669194   -0.0600
      6 C6        -10.4604   -1.6222   58.6482 C.ar    1  ZINC000477669194   -0.0800
      7 C7        -11.1676   -2.6934   58.1390 C.ar    1  ZINC000477669194   -0.1400
      8 C8        -11.5233   -2.7222   56.8024 C.ar    1  ZINC000477669194   -0.0900
      9 C9        -11.1738   -1.6797   55.9647 C.ar    1  ZINC000477669194   -0.1300
     10 C10       -10.4689   -0.5946   56.4634 C.ar    1  ZINC000477669194    0.1800
     11 N11       -10.1151    0.4606   55.6181 N.am    1  ZINC000477669194   -0.6500
     12 C12        -9.1812    0.2758   54.6642 C.2     1  ZINC000477669194    0.5600
     13 O13        -8.6463   -0.8092   54.5389 O.2     1  ZINC000477669194   -0.5200
     14 C14        -8.8077    1.3893   53.7721 C.ar    1  ZINC000477669194   -0.1500
     15 C15        -9.7815    2.2905   53.3313 C.ar    1  ZINC000477669194   -0.0600
     16 C16        -9.4298    3.3287   52.4993 C.ar    1  ZINC000477669194   -0.1400
     17 C17        -8.1060    3.4822   52.0967 C.ar    1  ZINC000477669194    0.1700
     18 N18        -7.7539    4.5324   51.2559 N.am    1  ZINC000477669194   -1.0600
     19 S19        -7.4733    4.2479   49.6488 S.o2    1  ZINC000477669194    2.6100
     20 C20        -7.0549    5.8760   48.9672 C.3     1  ZINC000477669194   -0.6700
     21 O21        -6.3367    3.3952   49.6371 O.2     1  ZINC000477669194   -0.9400
     22 O22        -8.7269    3.8046   49.1474 O.2     1  ZINC000477669194   -0.9500
     23 C23        -7.1339    2.5868   52.5342 C.ar    1  ZINC000477669194   -0.1600
     24 C24        -7.4783    1.5494   53.3702 C.ar    1  ZINC000477669194   -0.0300
     25 C25        -9.5675    1.1024   59.5818 C.2     1  ZINC000477669194   -0.2600
     26 S26        -8.4483    2.4423   59.8178 S.3     1  ZINC000477669194    0.1500
     27 H27        -6.3709    3.7750   58.3542 H       1  ZINC000477669194    0.0800
     28 H28        -5.8428    2.3571   57.4166 H       1  ZINC000477669194    0.0900
     29 H29        -7.0436    3.4791   56.7330 H       1  ZINC000477669194    0.0900
     30 H30       -10.1843   -1.6040   59.6921 H       1  ZINC000477669194    0.1300
     31 H31       -11.4439   -3.5122   58.7868 H       1  ZINC000477669194    0.1300
     32 H32       -12.0765   -3.5633   56.4114 H       1  ZINC000477669194    0.1300
     33 H33       -11.4537   -1.7082   54.9220 H       1  ZINC000477669194    0.1500
     34 H34       -10.5416    1.3260   55.7180 H       1  ZINC000477669194    0.4200
     35 H35       -10.8086    2.1718   53.6429 H       1  ZINC000477669194    0.1300
     36 H36       -10.1816    4.0249   52.1581 H       1  ZINC000477669194    0.1400
     37 H37        -7.6727    5.4314   51.6108 H       1  ZINC000477669194    0.4300
     38 H38        -6.1211    6.2254   49.4079 H       1  ZINC000477669194    0.1300
     39 H39        -6.9398    5.7987   47.8861 H       1  ZINC000477669194    0.1400
     40 H40        -7.8523    6.5824   49.1981 H       1  ZINC000477669194    0.1300
     41 H41        -6.1077    2.7088   52.2204 H       1  ZINC000477669194    0.1700
     42 H42        -6.7236    0.8554   53.7095 H       1  ZINC000477669194    0.1500
     43 H43       -10.3005    0.7534   60.2939 H       1  ZINC000477669194    0.1800
@<TRIPOS>BOND
     1     1     2    1
     2     1    27    1
     3     1    28    1
     4     1    29    1
     5     2    26    1
     6     2     3    2
     7     3     4    1
     8     4     5    1
     9     4    25    2
    10     5    10   ar
    11     5     6   ar
    12     6     7   ar
    13     6    30    1
    14     7     8   ar
    15     7    31    1
    16     8     9   ar
    17     8    32    1
    18     9    10   ar
    19     9    33    1
    20    10    11    1
    21    11    12   am
    22    11    34    1
    23    12    13    2
    24    12    14    1
    25    14    24   ar
    26    14    15   ar
    27    15    16   ar
    28    15    35    1
    29    16    17   ar
    30    16    36    1
    31    17    18    1
    32    17    23   ar
    33    18    19   am
    34    18    37    1
    35    19    20    1
    36    19    21    2
    37    19    22    2
    38    20    38    1
    39    20    39    1
    40    20    40    1
    41    23    24   ar
    42    23    41    1
    43    24    42    1
    44    25    26    1
    45    25    43    1
@<TRIPOS>SUBSTRUCTURE
     1 ZINC000477669194        1 TEMP              0 ****  ****    0 ROOT


##########                                Name:    ZINC000846412382
##########                DOCK_Rotatable_Bonds:                   6
##########                         Heavy_Atoms:                  26
##########                    Molecular_Weight:             370.475
##########                DOCK_Rotatable_Bonds:                   6
##########                       Formal_Charge:               -0.03
##########                     HBond_Acceptors:                   7
##########                        HBond_Donors:                   4
##########                         Heavy_Atoms:                  26
##########                          Grid_Score:          -26.635729
##########                     Grid_vdw_energy:          -26.394411
##########                      Grid_es_energy:           -0.241317
##########           Internal_energy_repulsive:           18.395220

@<TRIPOS>MOLECULE
ZINC000846412382
 48 50 1 0 0
SMALL
USER_CHARGES


@<TRIPOS>ATOM
      1 C1        -10.8942   -2.1735   56.4718 C.3     1  ZINC000846412382   -0.1400
      2 C2        -10.1113   -1.0381   57.0794 C.2     1  ZINC000846412382    0.0300
      3 C3         -9.5862   -0.0549   56.3375 C.2     1  ZINC000846412382   -0.2700
      4 C4         -9.7015    0.0421   54.8772 C.2     1  ZINC000846412382    0.6000
      5 O5         -8.8029   -0.3689   54.1673 O.2     1  ZINC000846412382   -0.5200
      6 N6        -10.8028    0.5864   54.3229 N.am    1  ZINC000846412382   -0.7100
      7 C7        -10.9172    0.6847   52.8656 C.3     1  ZINC000846412382    0.1200
      8 H8         -9.9234    0.7847   52.4291 H       1  ZINC000846412382    0.1000
      9 C9        -11.5891   -0.5771   52.3205 C.3     1  ZINC000846412382   -0.1700
     10 C10       -11.7596    1.9089   52.5016 C.3     1  ZINC000846412382    0.1700
     11 C11       -11.9866    2.7617   53.7515 C.3     1  ZINC000846412382   -0.1400
     12 O12       -13.0200    1.4821   51.9808 O.3     1  ZINC000846412382   -0.5500
     13 C13       -11.0365    2.7250   51.4613 C.ar    1  ZINC000846412382   -0.1200
     14 C14       -11.5256    2.7886   50.1700 C.ar    1  ZINC000846412382   -0.1100
     15 C15       -10.8624    3.5371   49.2157 C.ar    1  ZINC000846412382   -0.1200
     16 C16        -9.7104    4.2227   49.5529 C.ar    1  ZINC000846412382   -0.1200
     17 C17        -9.2217    4.1598   50.8446 C.ar    1  ZINC000846412382   -0.1200
     18 C18        -9.8873    3.4146   51.7998 C.ar    1  ZINC000846412382   -0.1000
     19 S19        -8.7413    1.1023   57.3516 S.3     1  ZINC000846412382    0.2000
     20 C20        -9.1355    0.1922   58.8036 C.ar    1  ZINC000846412382    0.1400
     21 N21        -8.8437    0.4126   60.0906 N.ar    1  ZINC000846412382   -0.5300
     22 C22        -9.2475   -0.4135   61.0284 C.ar    1  ZINC000846412382    0.3900
     23 C23        -8.8914   -0.1174   62.4624 C.3     1  ZINC000846412382   -0.0900
     24 N24        -9.9556   -1.4947   60.7568 N.ar    1  ZINC000846412382   -0.5800
     25 C25       -10.2954   -1.8002   59.5138 C.ar    1  ZINC000846412382    0.5100
     26 N26       -11.0357   -2.9343   59.2480 N.pl3   1  ZINC000846412382   -0.8300
     27 C27        -9.8895   -0.9375   58.4567 C.ar    1  ZINC000846412382   -0.2500
     28 H28       -11.9588   -1.9435   56.5129 H       1  ZINC000846412382    0.0800
     29 H29       -10.5915   -2.3088   55.4335 H       1  ZINC000846412382    0.1100
     30 H30       -10.6984   -3.0892   57.0297 H       1  ZINC000846412382    0.0700
     31 H31       -11.5198    0.9130   54.8888 H       1  ZINC000846412382    0.4000
     32 H32       -12.5829   -0.6770   52.7570 H       1  ZINC000846412382    0.0600
     33 H33       -11.6742   -0.5039   51.2363 H       1  ZINC000846412382    0.0800
     34 H34       -10.9890   -1.4492   52.5798 H       1  ZINC000846412382    0.0700
     35 H35       -11.0252    3.0874   54.1488 H       1  ZINC000846412382    0.0700
     36 H36       -12.5868    3.6339   53.4922 H       1  ZINC000846412382    0.0700
     37 H37       -12.5096    2.1715   54.5040 H       1  ZINC000846412382    0.0700
     38 H38       -13.6564    2.1992   51.8546 H       1  ZINC000846412382    0.3800
     39 H39       -12.4257    2.2530   49.9066 H       1  ZINC000846412382    0.1300
     40 H40       -11.2441    3.5862   48.2066 H       1  ZINC000846412382    0.1200
     41 H41        -9.1918    4.8069   48.8072 H       1  ZINC000846412382    0.1200
     42 H42        -8.3214    4.6951   51.1079 H       1  ZINC000846412382    0.1200
     43 H43        -9.5055    3.3656   52.8089 H       1  ZINC000846412382    0.1300
     44 H44        -9.6728    0.4956   62.9117 H       1  ZINC000846412382    0.0900
     45 H45        -8.8006   -1.0526   63.0148 H       1  ZINC000846412382    0.0900
     46 H46        -7.9433    0.4191   62.4980 H       1  ZINC000846412382    0.0900
     47 H47       -11.0439   -3.6679   59.8826 H       1  ZINC000846412382    0.4100
     48 H48       -11.5479   -2.9976   58.4267 H       1  ZINC000846412382    0.4200
@<TRIPOS>BOND
     1     1     2    1
     2     1    28    1
     3     1    29    1
     4     1    30    1
     5     2    27    1
     6     2     3    2
     7     3     4    1
     8     3    19    1
     9     4     5    2
    10     4     6   am
    11     6     7    1
    12     6    31    1
    13     7     8    1
    14     7     9    1
    15     7    10    1
    16     9    32    1
    17     9    33    1
    18     9    34    1
    19    10    11    1
    20    10    12    1
    21    10    13    1
    22    11    35    1
    23    11    36    1
    24    11    37    1
    25    12    38    1
    26    13    18   ar
    27    13    14   ar
    28    14    15   ar
    29    14    39    1
    30    15    16   ar
    31    15    40    1
    32    16    17   ar
    33    16    41    1
    34    17    18   ar
    35    17    42    1
    36    18    43    1
    37    19    20    1
    38    20    27   ar
    39    20    21   ar
    40    21    22   ar
    41    22    23    1
    42    22    24   ar
    43    23    44    1
    44    23    45    1
    45    23    46    1
    46    24    25   ar
    47    25    26    1
    48    25    27   ar
    49    26    47    1
    50    26    48    1
@<TRIPOS>SUBSTRUCTURE
     1 ZINC000846412382        1 TEMP              0 ****  ****    0 ROOT


##########                                Name:    ZINC000330515179
##########                DOCK_Rotatable_Bonds:                   4
##########                         Heavy_Atoms:                  21
##########                    Molecular_Weight:             378.287
##########                DOCK_Rotatable_Bonds:                   4
##########                       Formal_Charge:           0.0200002
##########                     HBond_Acceptors:                   6
##########                        HBond_Donors:                   0
##########                         Heavy_Atoms:                  21
##########                          Grid_Score:          -26.617386
##########                     Grid_vdw_energy:          -26.185741
##########                      Grid_es_energy:           -0.431645
##########           Internal_energy_repulsive:            6.724906

@<TRIPOS>MOLECULE
ZINC000330515179
 41 42 1 0 0
SMALL
USER_CHARGES


@<TRIPOS>ATOM
      1 C1        -15.4471   -3.8885   58.8726 C.3     1  ZINC000330515179    0.0300
      2 O2        -14.7139   -3.7231   60.0879 O.3     1  ZINC000330515179   -0.3800
      3 C3        -14.3173   -2.3752   60.3486 C.3     1  ZINC000330515179    0.0700
      4 C4        -12.9623   -2.1060   59.6911 C.3     1  ZINC000330515179    0.0800
      5 H5        -12.3905   -3.0328   59.6430 H       1  ZINC000330515179    0.0800
      6 C6        -12.1898   -1.0700   60.5157 C.3     1  ZINC000330515179    0.0900
      7 N7        -10.9801   -0.6906   59.7686 N.am    1  ZINC000330515179   -1.0000
      8 S8         -9.4903   -0.7113   60.4914 S.o2    1  ZINC000330515179    2.6900
      9 O9         -9.7155   -0.9884   61.8668 O.2     1  ZINC000330515179   -0.9400
     10 O10        -8.6542   -1.5090   59.6646 O.2     1  ZINC000330515179   -0.9500
     11 C11        -8.8496    0.9281   60.4125 C.ar    1  ZINC000330515179   -0.6700
     12 C12        -8.1842    1.3562   59.2789 C.ar    1  ZINC000330515179   -0.0100
     13 C13        -7.6818    2.6424   59.2165 C.ar    1  ZINC000330515179   -0.1100
     14 C14        -7.8449    3.5012   60.2885 C.ar    1  ZINC000330515179   -0.0400
     15 Br15       -7.1584    5.2611   60.2034 Br      1  ZINC000330515179   -0.0300
     16 C16        -8.5108    3.0725   61.4226 C.ar    1  ZINC000330515179   -0.1100
     17 C17        -9.0175    1.7879   61.4821 C.ar    1  ZINC000330515179   -0.0100
     18 C18       -11.1335   -0.2919   58.3605 C.3     1  ZINC000330515179    0.1000
     19 C19       -11.9574   -1.3658   57.6409 C.3     1  ZINC000330515179    0.1000
     20 C20       -12.2978   -0.8875   56.2280 C.3     1  ZINC000330515179   -0.1400
     21 C21       -11.1486   -2.6621   57.5607 C.3     1  ZINC000330515179   -0.1800
     22 O22       -13.1650   -1.6007   58.3693 O.3     1  ZINC000330515179   -0.3500
     23 H23       -15.7110   -4.9387   58.7475 H       1  ZINC000330515179    0.0900
     24 H24       -16.3559   -3.2878   58.9119 H       1  ZINC000330515179    0.0400
     25 H25       -14.8340   -3.5652   58.0314 H       1  ZINC000330515179    0.0400
     26 H26       -15.0617   -1.6919   59.9398 H       1  ZINC000330515179    0.0600
     27 H27       -14.2358   -2.2221   61.4247 H       1  ZINC000330515179    0.0700
     28 H28       -12.8129   -0.1904   60.6767 H       1  ZINC000330515179    0.0900
     29 H29       -11.9079   -1.5015   61.4762 H       1  ZINC000330515179    0.1000
     30 H30        -8.0565    0.6854   58.4422 H       1  ZINC000330515179    0.1500
     31 H31        -7.1616    2.9766   58.3310 H       1  ZINC000330515179    0.1500
     32 H32        -8.6385    3.7426   62.2597 H       1  ZINC000330515179    0.1500
     33 H33        -9.5374    1.4530   62.3674 H       1  ZINC000330515179    0.1500
     34 H34       -11.6503    0.6661   58.3044 H       1  ZINC000330515179    0.0900
     35 H35       -10.1521   -0.2081   57.8937 H       1  ZINC000330515179    0.1000
     36 H36       -11.3767   -0.7051   55.6744 H       1  ZINC000330515179    0.0800
     37 H37       -12.8836   -1.6515   55.7170 H       1  ZINC000330515179    0.0700
     38 H38       -12.8755    0.0351   56.2860 H       1  ZINC000330515179    0.0700
     39 H39       -10.9081   -3.0032   58.5675 H       1  ZINC000330515179    0.0600
     40 H40       -11.7351   -3.4251   57.0489 H       1  ZINC000330515179    0.0700
     41 H41       -10.2265   -2.4813   57.0082 H       1  ZINC000330515179    0.0700
@<TRIPOS>BOND
     1     1     2    1
     2     1    23    1
     3     1    24    1
     4     1    25    1
     5     2     3    1
     6     3     4    1
     7     3    26    1
     8     3    27    1
     9     4     5    1
    10     4    22    1
    11     4     6    1
    12     6     7    1
    13     6    28    1
    14     6    29    1
    15     7     8   am
    16     7    18    1
    17     8     9    2
    18     8    10    2
    19     8    11    1
    20    11    17   ar
    21    11    12   ar
    22    12    13   ar
    23    12    30    1
    24    13    14   ar
    25    13    31    1
    26    14    15    1
    27    14    16   ar
    28    16    17   ar
    29    16    32    1
    30    17    33    1
    31    18    19    1
    32    18    34    1
    33    18    35    1
    34    19    20    1
    35    19    21    1
    36    19    22    1
    37    20    36    1
    38    20    37    1
    39    20    38    1
    40    21    39    1
    41    21    40    1
    42    21    41    1
@<TRIPOS>SUBSTRUCTURE
     1 ZINC000330515179        1 TEMP              0 ****  ****    0 ROOT


##########                                Name:    ZINC000742270208
##########                DOCK_Rotatable_Bonds:                   5
##########                         Heavy_Atoms:                  25
##########                    Molecular_Weight:             376.328
##########                DOCK_Rotatable_Bonds:                   5
##########                       Formal_Charge:                0.02
##########                     HBond_Acceptors:                   9
##########                        HBond_Donors:                   0
##########                         Heavy_Atoms:                  25
##########                          Grid_Score:          -26.596630
##########                     Grid_vdw_energy:          -23.772530
##########                      Grid_es_energy:           -2.824100
##########           Internal_energy_repulsive:           14.790761

@<TRIPOS>MOLECULE
ZINC000742270208
 37 38 1 0 0
SMALL
USER_CHARGES


@<TRIPOS>ATOM
      1 C1        -10.4533    3.7398   65.7964 C.3     1  ZINC000742270208   -0.1400
      2 C2         -9.1132    3.0061   65.8789 C.3     1  ZINC000742270208   -0.1400
      3 C3         -8.6043    3.0341   67.3214 C.3     1  ZINC000742270208   -0.1400
      4 C4         -9.2954    1.5766   65.4380 C.2     1  ZINC000742270208    0.4000
      5 O5         -9.5818    0.7233   66.2505 O.2     1  ZINC000742270208   -0.4300
      6 C6         -9.1256    1.2161   64.0213 C.ar    1  ZINC000742270208   -0.1000
      7 C7         -9.3401   -0.1001   63.6004 C.ar    1  ZINC000742270208   -0.0900
      8 C8         -9.1789   -0.4300   62.2713 C.ar    1  ZINC000742270208   -0.0200
      9 C9         -8.8055    0.5375   61.3548 C.ar    1  ZINC000742270208   -0.6800
     10 S10        -8.6022    0.1059   59.6586 S.o2    1  ZINC000742270208    2.6600
     11 O11        -7.6511    1.0164   59.1241 O.2     1  ZINC000742270208   -0.9300
     12 O12        -8.4345   -1.3046   59.6208 O.2     1  ZINC000742270208   -0.9000
     13 O13        -9.9206    0.4010   58.9575 O.3     1  ZINC000742270208   -0.6400
     14 C14       -10.0889   -0.2741   57.7888 C.ar    1  ZINC000742270208    0.0500
     15 C15        -9.5130    0.2051   56.6203 C.ar    1  ZINC000742270208    0.0900
     16 F16        -8.7846    1.3427   56.6428 F       1  ZINC000742270208   -0.0900
     17 C17        -9.6852   -0.4843   55.4310 C.ar    1  ZINC000742270208    0.1100
     18 F18        -9.1249   -0.0184   54.2935 F       1  ZINC000742270208   -0.1000
     19 C19       -10.4307   -1.6506   55.4076 C.ar    1  ZINC000742270208   -0.1100
     20 C20       -11.0062   -2.1299   56.5720 C.ar    1  ZINC000742270208    0.1200
     21 F21       -11.7334   -3.2682   56.5466 F       1  ZINC000742270208   -0.1000
     22 C22       -10.8320   -1.4462   57.7643 C.ar    1  ZINC000742270208    0.1200
     23 F23       -11.3934   -1.9146   58.9003 F       1  ZINC000742270208   -0.0900
     24 C24        -8.5915    1.8424   61.7635 C.ar    1  ZINC000742270208   -0.0300
     25 C25        -8.7545    2.1894   63.0881 C.ar    1  ZINC000742270208   -0.0800
     26 H26       -10.3216    4.7738   66.1153 H       1  ZINC000742270208    0.0700
     27 H27       -10.8158    3.7199   64.7687 H       1  ZINC000742270208    0.0600
     28 H28       -11.1772    3.2485   66.4467 H       1  ZINC000742270208    0.0600
     29 H29        -8.3894    3.4974   65.2286 H       1  ZINC000742270208    0.1000
     30 H30        -9.3282    2.5427   67.9717 H       1  ZINC000742270208    0.0700
     31 H31        -7.6497    2.5112   67.3802 H       1  ZINC000742270208    0.0600
     32 H32        -8.4726    4.0680   67.6403 H       1  ZINC000742270208    0.0700
     33 H33        -9.6307   -0.8564   64.3145 H       1  ZINC000742270208    0.1500
     34 H34        -9.3441   -1.4461   61.9446 H       1  ZINC000742270208    0.1500
     35 H35       -10.5638   -2.1871   54.4798 H       1  ZINC000742270208    0.1900
     36 H36        -8.3003    2.5918   61.0424 H       1  ZINC000742270208    0.1500
     37 H37        -8.5871    3.2080   63.4055 H       1  ZINC000742270208    0.1500
@<TRIPOS>BOND
     1     1     2    1
     2     1    26    1
     3     1    27    1
     4     1    28    1
     5     2     3    1
     6     2     4    1
     7     2    29    1
     8     3    30    1
     9     3    31    1
    10     3    32    1
    11     4     5    2
    12     4     6    1
    13     6    25   ar
    14     6     7   ar
    15     7     8   ar
    16     7    33    1
    17     8     9   ar
    18     8    34    1
    19     9    10    1
    20     9    24   ar
    21    10    11    2
    22    10    12    2
    23    10    13    1
    24    13    14    1
    25    14    22   ar
    26    14    15   ar
    27    15    16    1
    28    15    17   ar
    29    17    18    1
    30    17    19   ar
    31    19    20   ar
    32    19    35    1
    33    20    21    1
    34    20    22   ar
    35    22    23    1
    36    24    25   ar
    37    24    36    1
    38    25    37    1
@<TRIPOS>SUBSTRUCTURE
     1 ZINC000742270208        1 TEMP              0 ****  ****    0 ROOT


##########                                Name:    ZINC000618094467
##########                DOCK_Rotatable_Bonds:                   5
##########                         Heavy_Atoms:                  27
##########                    Molecular_Weight:             370.492
##########                DOCK_Rotatable_Bonds:                   5
##########                       Formal_Charge:                0.03
##########                     HBond_Acceptors:                   5
##########                        HBond_Donors:                   0
##########                         Heavy_Atoms:                  27
##########                          Grid_Score:          -26.583126
##########                     Grid_vdw_energy:          -24.946527
##########                      Grid_es_energy:           -1.636598
##########           Internal_energy_repulsive:          122.687813

@<TRIPOS>MOLECULE
ZINC000618094467
 57 59 1 0 0
SMALL
USER_CHARGES


@<TRIPOS>ATOM
      1 C1         -9.5158   -0.9003   61.7739 C.3     1  ZINC000618094467   -0.1500
      2 C2        -10.0087    0.4170   61.1719 C.3     1  ZINC000618094467   -0.1000
      3 C3         -9.5542    0.5134   59.7142 C.3     1  ZINC000618094467   -0.1100
      4 H4         -9.4649    1.5620   59.4300 H       1  ZINC000618094467    0.1000
      5 C5         -8.1967   -0.1749   59.5568 C.3     1  ZINC000618094467   -0.1500
      6 C6        -10.5664   -0.1633   58.8265 C.2     1  ZINC000618094467    0.5200
      7 O7        -11.3518   -0.9580   59.2984 O.2     1  ZINC000618094467   -0.5000
      8 N8        -10.5993    0.1145   57.5081 N.am    1  ZINC000618094467   -0.6100
      9 C9         -9.6636    1.0707   56.9067 C.3     1  ZINC000618094467    0.1400
     10 C10        -9.1193    0.5068   55.6183 C.ar    1  ZINC000618094467   -0.1000
     11 C11        -8.0416    1.1555   55.0316 C.ar    1  ZINC000618094467   -0.1100
     12 C12        -7.5060    0.6930   53.8469 C.ar    1  ZINC000618094467   -0.1200
     13 C13        -8.0481   -0.4240   53.2396 C.ar    1  ZINC000618094467   -0.1100
     14 C14        -9.1167   -1.0720   53.8239 C.ar    1  ZINC000618094467   -0.1200
     15 C15        -9.6542   -0.6122   55.0198 C.ar    1  ZINC000618094467   -0.0600
     16 C16       -10.8020   -1.3862   55.6127 C.3     1  ZINC000618094467   -0.0800
     17 C17       -11.5716   -0.5341   56.6129 C.3     1  ZINC000618094467    0.1200
     18 H18       -12.1445    0.2278   56.0843 H       1  ZINC000618094467    0.1000
     19 C19       -12.5023   -1.4062   57.4156 C.2     1  ZINC000618094467    0.5500
     20 O20       -12.1516   -2.5167   57.7543 O.2     1  ZINC000618094467   -0.5200
     21 N21       -13.7244   -0.9520   57.7571 N.am    1  ZINC000618094467   -0.6100
     22 C22       -14.6359   -1.7923   58.5443 C.3     1  ZINC000618094467    0.1200
     23 C23       -15.0139   -1.0425   59.8281 C.3     1  ZINC000618094467   -0.1600
     24 H24       -15.8318   -1.5610   60.3286 H       1  ZINC000618094467    0.1100
     25 C25       -13.8021   -0.9724   60.7595 C.3     1  ZINC000618094467   -0.1400
     26 C26       -15.4511    0.3566   59.4535 C.2     1  ZINC000618094467    0.3700
     27 O27       -16.5128    0.7938   59.8278 O.2     1  ZINC000618094467   -0.4400
     28 C28       -14.5258    1.1949   58.5992 C.3     1  ZINC000618094467   -0.1600
     29 H29       -13.6217    1.4312   59.1604 H       1  ZINC000618094467    0.1100
     30 C30       -15.2323    2.4893   58.1918 C.3     1  ZINC000618094467   -0.1400
     31 C31       -14.1577    0.3914   57.3514 C.3     1  ZINC000618094467    0.1400
     32 H32        -8.4272   -0.9351   61.7297 H       1  ZINC000618094467    0.0500
     33 H33        -9.8397   -0.9690   62.8124 H       1  ZINC000618094467    0.0600
     34 H34        -9.9293   -1.7354   61.2083 H       1  ZINC000618094467    0.0600
     35 H35       -11.0974    0.4518   61.2161 H       1  ZINC000618094467    0.0700
     36 H36        -9.5953    1.2521   61.7374 H       1  ZINC000618094467    0.0700
     37 H37        -8.2503   -1.1824   59.9690 H       1  ZINC000618094467    0.0700
     38 H38        -7.9370   -0.2282   58.4995 H       1  ZINC000618094467    0.0700
     39 H39        -7.4360    0.3958   60.0894 H       1  ZINC000618094467    0.0700
     40 H40       -10.1832    2.0068   56.7019 H       1  ZINC000618094467    0.0900
     41 H41        -8.8410    1.2567   57.5974 H       1  ZINC000618094467    0.1100
     42 H42        -7.6193    2.0292   55.5057 H       1  ZINC000618094467    0.1300
     43 H43        -6.6669    1.2019   53.3959 H       1  ZINC000618094467    0.1300
     44 H44        -7.6364   -0.7885   52.3101 H       1  ZINC000618094467    0.1200
     45 H45        -9.5395   -1.9441   53.3474 H       1  ZINC000618094467    0.1200
     46 H46       -11.4743   -1.6987   54.8137 H       1  ZINC000618094467    0.0900
     47 H47       -10.4144   -2.2696   56.1203 H       1  ZINC000618094467    0.1000
     48 H48       -15.5349   -1.9994   57.9640 H       1  ZINC000618094467    0.0700
     49 H49       -14.1401   -2.7286   58.8006 H       1  ZINC000618094467    0.0900
     50 H50       -13.0203   -0.3721   60.2940 H       1  ZINC000618094467    0.0600
     51 H51       -14.0963   -0.5161   61.7047 H       1  ZINC000618094467    0.0600
     52 H52       -13.4264   -1.9789   60.9433 H       1  ZINC000618094467    0.0700
     53 H53       -15.5065    3.0503   59.0853 H       1  ZINC000618094467    0.0700
     54 H54       -14.5629    3.0906   57.5766 H       1  ZINC000618094467    0.0700
     55 H55       -16.1309    2.2495   57.6235 H       1  ZINC000618094467    0.0600
     56 H56       -13.3485    0.8922   56.8199 H       1  ZINC000618094467    0.1100
     57 H57       -15.0281    0.3074   56.7009 H       1  ZINC000618094467    0.0700
@<TRIPOS>BOND
     1     1     2    1
     2     1    32    1
     3     1    33    1
     4     1    34    1
     5     2     3    1
     6     2    35    1
     7     2    36    1
     8     3     4    1
     9     3     5    1
    10     3     6    1
    11     5    37    1
    12     5    38    1
    13     5    39    1
    14     6     7    2
    15     6     8   am
    16     8    17    1
    17     8     9    1
    18     9    10    1
    19     9    40    1
    20     9    41    1
    21    10    15   ar
    22    10    11   ar
    23    11    12   ar
    24    11    42    1
    25    12    13   ar
    26    12    43    1
    27    13    14   ar
    28    13    44    1
    29    14    15   ar
    30    14    45    1
    31    15    16    1
    32    16    17    1
    33    16    46    1
    34    16    47    1
    35    17    18    1
    36    17    19    1
    37    19    20    2
    38    19    21   am
    39    21    31    1
    40    21    22    1
    41    22    23    1
    42    22    48    1
    43    22    49    1
    44    23    24    1
    45    23    25    1
    46    23    26    1
    47    25    50    1
    48    25    51    1
    49    25    52    1
    50    26    27    2
    51    26    28    1
    52    28    29    1
    53    28    30    1
    54    28    31    1
    55    30    53    1
    56    30    54    1
    57    30    55    1
    58    31    56    1
    59    31    57    1
@<TRIPOS>SUBSTRUCTURE
     1 ZINC000618094467        1 TEMP              0 ****  ****    0 ROOT


##########                                Name:    ZINC000129637895
##########                DOCK_Rotatable_Bonds:                   7
##########                         Heavy_Atoms:                  26
##########                    Molecular_Weight:             374.464
##########                DOCK_Rotatable_Bonds:                   7
##########                       Formal_Charge:        -5.51343e-07
##########                     HBond_Acceptors:                   8
##########                        HBond_Donors:                   1
##########                         Heavy_Atoms:                  26
##########                          Grid_Score:          -26.564613
##########                     Grid_vdw_energy:          -24.513723
##########                      Grid_es_energy:           -2.050889
##########           Internal_energy_repulsive:           13.135583

@<TRIPOS>MOLECULE
ZINC000129637895
 48 50 1 0 0
SMALL
USER_CHARGES


@<TRIPOS>ATOM
      1 C1          0.1291    3.3170   58.1750 C.3     1  ZINC000129637895   -0.1500
      2 C2         -1.1353    2.5316   58.5289 C.3     1  ZINC000129637895   -0.0500
      3 C3         -2.1567    3.4659   59.1245 C.2     1  ZINC000129637895    0.0300
      4 C4         -3.0872    4.0968   58.3859 C.2     1  ZINC000129637895   -0.0200
      5 N5         -3.2497    3.9911   57.0052 N.am    1  ZINC000129637895   -0.5900
      6 C6         -3.1756    5.0924   56.2318 C.2     1  ZINC000129637895    0.5000
      7 O7         -2.9660    6.1762   56.7372 O.2     1  ZINC000129637895   -0.4800
      8 C8         -3.3514    4.9795   54.7539 C.2     1  ZINC000129637895    0.5200
      9 O9         -4.4581    4.8090   54.2856 O.2     1  ZINC000129637895   -0.5100
     10 N10        -2.2811    5.0670   53.9393 N.am    1  ZINC000129637895   -0.5800
     11 C11        -0.9306    5.2673   54.4863 C.3     1  ZINC000129637895    0.0800
     12 C12        -0.0006    4.2067   53.8876 C.3     1  ZINC000129637895    0.0400
     13 N13        -0.0904    4.2525   52.4220 N.3     1  ZINC000129637895   -0.4900
     14 C14         0.8613    3.4149   51.8359 C.ar    1  ZINC000129637895    0.1500
     15 C15         1.6670    3.8895   50.8082 C.ar    1  ZINC000129637895   -0.2100
     16 C16         2.6086    3.0609   50.2290 C.ar    1  ZINC000129637895   -0.0500
     17 C17         2.7514    1.7590   50.6692 C.ar    1  ZINC000129637895   -0.2300
     18 C18         1.9493    1.2794   51.6956 C.ar    1  ZINC000129637895    0.1500
     19 O19         2.0914   -0.0013   52.1277 O.3     1  ZINC000129637895   -0.3200
     20 C20         3.3589   -0.3629   52.6794 C.3     1  ZINC000129637895    0.0300
     21 C21         1.0075    2.1088   52.2832 C.ar    1  ZINC000129637895   -0.1700
     22 C22        -1.4436    3.9159   51.9602 C.3     1  ZINC000129637895    0.0400
     23 C23        -2.4319    4.9584   52.4804 C.3     1  ZINC000129637895    0.1100
     24 S24        -4.0650    5.0795   59.4736 S.3     1  ZINC000129637895    0.2400
     25 C25        -3.1334    4.5498   60.8055 C.2     1  ZINC000129637895   -0.0300
     26 N26        -2.2176    3.7303   60.4142 N.2     1  ZINC000129637895   -0.4500
     27 H27        -0.1167    4.0951   57.4523 H       1  ZINC000129637895    0.0600
     28 H28         0.5372    3.7741   59.0765 H       1  ZINC000129637895    0.0500
     29 H29         0.8679    2.6411   57.7441 H       1  ZINC000129637895    0.0700
     30 H30        -1.5433    2.0744   57.6274 H       1  ZINC000129637895    0.0900
     31 H31        -0.8895    1.7535   59.2515 H       1  ZINC000129637895    0.0700
     32 H32        -3.4160    3.1251   56.6013 H       1  ZINC000129637895    0.4300
     33 H33        -0.5715    6.2614   54.2201 H       1  ZINC000129637895    0.0900
     34 H34        -0.9555    5.1622   55.5710 H       1  ZINC000129637895    0.1400
     35 H35         1.0255    4.4071   54.1956 H       1  ZINC000129637895    0.1000
     36 H36        -0.3003    3.2196   54.2397 H       1  ZINC000129637895    0.0500
     37 H37         1.5568    4.9064   50.4618 H       1  ZINC000129637895    0.1300
     38 H38         3.2340    3.4314   49.4303 H       1  ZINC000129637895    0.1300
     39 H39         3.4879    1.1135   50.2139 H       1  ZINC000129637895    0.1300
     40 H40         4.1362   -0.2191   51.9290 H       1  ZINC000129637895    0.0600
     41 H41         3.5701    0.2636   53.5460 H       1  ZINC000129637895    0.0600
     42 H42         3.3373   -1.4092   52.9842 H       1  ZINC000129637895    0.1000
     43 H43         0.3828    1.7374   53.0820 H       1  ZINC000129637895    0.1300
     44 H44        -1.4639    3.9052   50.8705 H       1  ZINC000129637895    0.1000
     45 H45        -1.7233    2.9328   52.3392 H       1  ZINC000129637895    0.0500
     46 H46        -3.4493    4.6516   52.2376 H       1  ZINC000129637895    0.1100
     47 H47        -2.2191    5.9248   52.0234 H       1  ZINC000129637895    0.0900
     48 H48        -3.2920    4.8545   61.8294 H       1  ZINC000129637895    0.2000
@<TRIPOS>BOND
     1     1     2    1
     2     1    27    1
     3     1    28    1
     4     1    29    1
     5     2     3    1
     6     2    30    1
     7     2    31    1
     8     3    26    1
     9     3     4    2
    10     4     5    1
    11     4    24    1
    12     5     6   am
    13     5    32    1
    14     6     7    2
    15     6     8    1
    16     8     9    2
    17     8    10   am
    18    10    23    1
    19    10    11    1
    20    11    12    1
    21    11    33    1
    22    11    34    1
    23    12    13    1
    24    12    35    1
    25    12    36    1
    26    13    14    1
    27    13    22    1
    28    14    21   ar
    29    14    15   ar
    30    15    16   ar
    31    15    37    1
    32    16    17   ar
    33    16    38    1
    34    17    18   ar
    35    17    39    1
    36    18    19    1
    37    18    21   ar
    38    19    20    1
    39    20    40    1
    40    20    41    1
    41    20    42    1
    42    21    43    1
    43    22    23    1
    44    22    44    1
    45    22    45    1
    46    23    46    1
    47    23    47    1
    48    24    25    1
    49    25    26    2
    50    25    48    1
@<TRIPOS>SUBSTRUCTURE
     1 ZINC000129637895        1 TEMP              0 ****  ****    0 ROOT


##########                                Name:    ZINC000156038173
##########                DOCK_Rotatable_Bonds:                  10
##########                         Heavy_Atoms:                  27
##########                    Molecular_Weight:             396.357
##########                DOCK_Rotatable_Bonds:                  10
##########                       Formal_Charge:         -0.00999981
##########                     HBond_Acceptors:                  10
##########                        HBond_Donors:                   1
##########                         Heavy_Atoms:                  27
##########                          Grid_Score:          -26.555233
##########                     Grid_vdw_energy:          -24.985498
##########                      Grid_es_energy:           -1.569735
##########           Internal_energy_repulsive:           23.584826

@<TRIPOS>MOLECULE
ZINC000156038173
 48 48 1 0 0
SMALL
USER_CHARGES


@<TRIPOS>ATOM
      1 C1         -3.0296    4.7147   53.8770 C.3     1  ZINC000156038173    0.0700
      2 N2         -1.7118    4.0840   53.9832 N.am    1  ZINC000156038173   -0.6300
      3 C3         -1.1516    3.7748   55.3012 C.3     1  ZINC000156038173    0.1500
      4 C4         -0.8629    5.0770   56.0508 C.3     1  ZINC000156038173   -0.1400
      5 C5         -1.0772    4.8647   57.5273 C.2     1  ZINC000156038173    0.4700
      6 O6         -2.1725    5.0323   58.0091 O.2     1  ZINC000156038173   -0.5000
      7 O7         -0.0512    4.4895   58.3073 O.3     1  ZINC000156038173   -0.3500
      8 C8         -0.2455    3.3084   59.1291 C.3     1  ZINC000156038173    0.1200
      9 C9         -1.0439    3.6828   60.3795 C.3     1  ZINC000156038173   -0.1800
     10 C10        -1.0130    2.2525   58.3312 C.3     1  ZINC000156038173   -0.1400
     11 C11         1.1157    2.7454   59.5428 C.3     1  ZINC000156038173   -0.1800
     12 C12        -1.0145    3.7879   52.8685 C.2     1  ZINC000156038173    0.7100
     13 O13        -1.4785    4.0458   51.7747 O.2     1  ZINC000156038173   -0.5700
     14 N14         0.1973    3.2062   52.9663 N.am    1  ZINC000156038173   -0.7400
     15 C15         0.9561    2.8860   51.7547 C.3     1  ZINC000156038173    0.1700
     16 H16         0.2751    2.8209   50.9061 H       1  ZINC000156038173    0.1500
     17 C17         1.6594    1.5656   51.9366 C.ar    1  ZINC000156038173   -0.1300
     18 C18         2.4371    1.3457   53.0578 C.ar    1  ZINC000156038173   -0.0700
     19 C19         3.0831    0.1349   53.2262 C.ar    1  ZINC000156038173   -0.1000
     20 C20         2.9525   -0.8581   52.2737 C.ar    1  ZINC000156038173   -0.1100
     21 C21         2.1744   -0.6409   51.1498 C.ar    1  ZINC000156038173    0.0700
     22 F22         2.0462   -1.6110   50.2183 F       1  ZINC000156038173   -0.1200
     23 C23         1.5220    0.5712   50.9837 C.ar    1  ZINC000156038173    0.1000
     24 F24         0.7620    0.7855   49.8875 F       1  ZINC000156038173   -0.1200
     25 C25         1.9903    3.9833   51.4956 C.3     1  ZINC000156038173    0.4500
     26 F26         3.0058    3.4824   50.6739 F       1  ZINC000156038173   -0.1700
     27 F27         1.3717    5.0676   50.8641 F       1  ZINC000156038173   -0.1600
     28 F28         2.5393    4.4033   52.7120 F       1  ZINC000156038173   -0.1700
     29 H29        -2.9150    5.7986   53.8806 H       1  ZINC000156038173    0.0600
     30 H30        -3.5080    4.4030   52.9485 H       1  ZINC000156038173    0.0700
     31 H31        -3.6466    4.4119   54.7230 H       1  ZINC000156038173    0.0800
     32 H32        -1.8666    3.1795   55.8692 H       1  ZINC000156038173    0.1000
     33 H33        -0.2259    3.2125   55.1798 H       1  ZINC000156038173    0.0900
     34 H34         0.1696    5.3774   55.8730 H       1  ZINC000156038173    0.1100
     35 H35        -1.5349    5.8579   55.6947 H       1  ZINC000156038173    0.1100
     36 H36        -2.0136    4.0839   60.0848 H       1  ZINC000156038173    0.0600
     37 H37        -1.1897    2.7960   60.9964 H       1  ZINC000156038173    0.0700
     38 H38        -0.4970    4.4350   60.9479 H       1  ZINC000156038173    0.0800
     39 H39        -0.4442    1.9858   57.4404 H       1  ZINC000156038173    0.0700
     40 H40        -1.1589    1.3658   58.9481 H       1  ZINC000156038173    0.0800
     41 H41        -1.9827    2.6536   58.0364 H       1  ZINC000156038173    0.0700
     42 H42         1.6625    3.4976   60.1112 H       1  ZINC000156038173    0.0800
     43 H43         0.9699    1.8586   60.1597 H       1  ZINC000156038173    0.0700
     44 H44         1.6845    2.4787   58.6519 H       1  ZINC000156038173    0.0600
     45 H45         0.5671    2.9993   53.8389 H       1  ZINC000156038173    0.4100
     46 H46         2.5406    2.1205   53.8030 H       1  ZINC000156038173    0.1400
     47 H47         3.6906   -0.0350   54.1027 H       1  ZINC000156038173    0.1500
     48 H48         3.4579   -1.8033   52.4062 H       1  ZINC000156038173    0.1500
@<TRIPOS>BOND
     1     1     2    1
     2     1    29    1
     3     1    30    1
     4     1    31    1
     5     2     3    1
     6     2    12   am
     7     3     4    1
     8     3    32    1
     9     3    33    1
    10     4     5    1
    11     4    34    1
    12     4    35    1
    13     5     6    2
    14     5     7    1
    15     7     8    1
    16     8     9    1
    17     8    10    1
    18     8    11    1
    19     9    36    1
    20     9    37    1
    21     9    38    1
    22    10    39    1
    23    10    40    1
    24    10    41    1
    25    11    42    1
    26    11    43    1
    27    11    44    1
    28    12    13    2
    29    12    14   am
    30    14    15    1
    31    14    45    1
    32    15    16    1
    33    15    17    1
    34    15    25    1
    35    17    23   ar
    36    17    18   ar
    37    18    19   ar
    38    18    46    1
    39    19    20   ar
    40    19    47    1
    41    20    21   ar
    42    20    48    1
    43    21    22    1
    44    21    23   ar
    45    23    24    1
    46    25    26    1
    47    25    27    1
    48    25    28    1
@<TRIPOS>SUBSTRUCTURE
     1 ZINC000156038173        1 TEMP              0 ****  ****    0 ROOT


##########                                Name:    ZINC000012087388
##########                DOCK_Rotatable_Bonds:                   5
##########                         Heavy_Atoms:                  29
##########                    Molecular_Weight:              418.52
##########                DOCK_Rotatable_Bonds:                   5
##########                       Formal_Charge:          -0.0499999
##########                     HBond_Acceptors:                  10
##########                        HBond_Donors:                   1
##########                         Heavy_Atoms:                  29
##########                          Grid_Score:          -26.540522
##########                     Grid_vdw_energy:          -26.364397
##########                      Grid_es_energy:           -0.176125
##########           Internal_energy_repulsive:           24.577213

@<TRIPOS>MOLECULE
ZINC000012087388
 55 58 1 0 0
SMALL
USER_CHARGES


@<TRIPOS>ATOM
      1 C1         -8.4076    2.7805   59.4883 C.3     1  <0>        -0.6600
      2 S2         -8.7030    1.7584   58.0191 S.o2    1  <0>         2.5100
      3 O3         -8.0822    0.4884   58.1622 O.2     1  <0>        -0.9400
      4 O4        -10.0558    1.8694   57.5984 O.2     1  <0>        -0.9300
      5 C5         -7.7841    2.5499   56.7409 C.ar    1  <0>        -0.8400
      6 C6         -6.8865    3.5631   57.0377 C.ar    1  <0>         0.3000
      7 N7         -6.2122    4.1363   56.0545 N.ar    1  <0>        -0.5800
      8 C8         -6.3874    3.7518   54.7989 C.ar    1  <0>         0.6000
      9 N9         -5.6652    4.3732   53.7950 N.pl3   1  <0>        -0.5700
     10 C10        -5.0400    3.5845   52.7245 C.3     1  <0>         0.1200
     11 C11        -5.4972    4.1394   51.3718 C.3     1  <0>        -0.1400
     12 C12        -5.1911    5.6375   51.3096 C.3     1  <0>        -0.1200
     13 C13        -5.9613    6.3637   52.4149 C.3     1  <0>        -0.1400
     14 C14        -5.5143    5.8346   53.7761 C.3     1  <0>         0.1200
     15 N15        -7.2373    2.7861   54.4814 N.ar    1  <0>        -0.5700
     16 C16        -7.9392    2.1686   55.4171 C.ar    1  <0>         0.3200
     17 C17        -8.9036    1.0713   55.0475 C.3     1  <0>        -0.0700
     18 C18       -10.2361    1.6877   54.6154 C.3     1  <0>        -0.1300
     19 C19       -11.2249    0.5687   54.2736 C.3     1  <0>         0.0900
     20 N20       -10.6136   -0.3121   53.2691 N.am    1  <0>        -0.6100
     21 C21       -11.2547   -0.5874   52.1160 C.2     1  <0>         0.5900
     22 O22       -10.7378   -1.3180   51.2923 O.2     1  <0>        -0.5100
     23 C23       -12.5800   -0.0040   51.8535 C.2     1  <0>        -0.0400
     24 C24       -12.8940    0.9490   50.9003 C.2     1  <0>        -0.1500
     25 C25       -14.2651    1.1755   51.0412 C.2     1  <0>         0.0000
     26 N26       -14.7017    0.4065   52.0059 N.2     1  <0>        -0.2700
     27 N27       -13.7478   -0.2988   52.4979 N.pl3   1  <0>        -0.3900
     28 C28        -9.2898   -0.8867   53.5453 C.3     1  <0>         0.1100
     29 C29        -8.3227    0.2486   53.8951 C.3     1  <0>        -0.1200
     30 H30        -7.3401    2.8014   59.7077 H       1  <0>         0.1400
     31 H31        -8.7601    3.7950   59.3021 H       1  <0>         0.1300
     32 H32        -8.9450    2.3594   60.3380 H       1  <0>         0.1400
     33 H33        -6.7396    3.8812   58.0593 H       1  <0>         0.1900
     34 H34        -3.9552    3.6586   52.8020 H       1  <0>         0.0700
     35 H35        -5.3443    2.5417   52.8136 H       1  <0>         0.1000
     36 H36        -4.9667    3.6260   50.5699 H       1  <0>         0.0800
     37 H37        -6.5699    3.9822   51.2580 H       1  <0>         0.0700
     38 H38        -4.1215    5.7956   51.4482 H       1  <0>         0.0700
     39 H39        -5.4930    6.0299   50.3385 H       1  <0>         0.0700
     40 H40        -5.7610    7.4335   52.3554 H       1  <0>         0.0800
     41 H41        -7.0295    6.1856   52.2912 H       1  <0>         0.0700
     42 H42        -6.1292    6.2769   54.5598 H       1  <0>         0.1000
     43 H43        -4.4677    6.0902   53.9417 H       1  <0>         0.0700
     44 H44        -9.0657    0.4245   55.9098 H       1  <0>         0.1000
     45 H45       -10.6379    2.2924   55.4284 H       1  <0>         0.0800
     46 H46       -10.0791    2.3150   53.7379 H       1  <0>         0.0900
     47 H47       -11.4527   -0.0047   55.1722 H       1  <0>         0.0800
     48 H48       -12.1412    1.0009   53.8715 H       1  <0>         0.0900
     49 H49       -12.2218    1.4179   50.1969 H       1  <0>         0.1700
     50 H50       -14.8592    1.8634   50.4579 H       1  <0>         0.1900
     51 H51       -13.8409   -0.9382   53.2213 H       1  <0>         0.4400
     52 H52        -9.3598   -1.5788   54.3844 H       1  <0>         0.0800
     53 H53        -8.9293   -1.4149   52.6625 H       1  <0>         0.1000
     54 H54        -8.1837    0.8894   53.0245 H       1  <0>         0.0800
     55 H55        -7.3626   -0.1710   54.1956 H       1  <0>         0.0900
@<TRIPOS>BOND
     1     1     2    1
     2     1    30    1
     3     1    31    1
     4     1    32    1
     5     2     3    2
     6     2     4    2
     7     2     5    1
     8     5    16   ar
     9     5     6   ar
    10     6     7   ar
    11     6    33    1
    12     7     8   ar
    13     8     9    1
    14     8    15   ar
    15     9    14    1
    16     9    10    1
    17    10    11    1
    18    10    34    1
    19    10    35    1
    20    11    12    1
    21    11    36    1
    22    11    37    1
    23    12    13    1
    24    12    38    1
    25    12    39    1
    26    13    14    1
    27    13    40    1
    28    13    41    1
    29    14    42    1
    30    14    43    1
    31    15    16   ar
    32    16    17    1
    33    17    29    1
    34    17    18    1
    35    17    44    1
    36    18    19    1
    37    18    45    1
    38    18    46    1
    39    19    20    1
    40    19    47    1
    41    19    48    1
    42    20    21   am
    43    20    28    1
    44    21    22    2
    45    21    23    1
    46    23    27    1
    47    23    24    2
    48    24    25    1
    49    24    49    1
    50    25    26    2
    51    25    50    1
    52    26    27    1
    53    27    51    1
    54    28    29    1
    55    28    52    1
    56    28    53    1
    57    29    54    1
    58    29    55    1
@<TRIPOS>SUBSTRUCTURE
     1 <0>         1 TEMP              0 ****  ****    0 ROOT


##########                                Name:    ZINC001191386213
##########                DOCK_Rotatable_Bonds:                   6
##########                         Heavy_Atoms:                  29
##########                    Molecular_Weight:             392.433
##########                DOCK_Rotatable_Bonds:                   6
##########                       Formal_Charge:               -0.02
##########                     HBond_Acceptors:                   7
##########                        HBond_Donors:                   2
##########                         Heavy_Atoms:                  29
##########                          Grid_Score:          -26.533417
##########                     Grid_vdw_energy:          -28.529757
##########                      Grid_es_energy:            1.996339
##########           Internal_energy_repulsive:           14.634372

@<TRIPOS>MOLECULE
ZINC001191386213
 50 53 1 0 0
SMALL
USER_CHARGES


@<TRIPOS>ATOM
      1 C1         -8.7624   -0.0519   65.4567 C.3     1  ZINC001191386213   -0.1700
      2 C2         -8.6133   -0.0828   63.9573 C.2     1  ZINC001191386213    0.5100
      3 O3         -7.5143    0.0211   63.4550 O.2     1  ZINC001191386213   -0.5200
      4 N4         -9.7011   -0.2259   63.1747 N.am    1  ZINC001191386213   -0.6800
      5 C5         -9.5627   -0.2546   61.7825 C.ar    1  ZINC001191386213    0.1400
      6 C6        -10.1411   -1.2819   61.0476 C.ar    1  ZINC001191386213   -0.1400
      7 C7        -10.0068   -1.3132   59.6725 C.ar    1  ZINC001191386213   -0.1000
      8 C8         -9.2969   -0.3241   59.0216 C.ar    1  ZINC001191386213   -0.1100
      9 C9         -8.7129    0.7100   59.7510 C.ar    1  ZINC001191386213    0.0100
     10 C10        -7.9492    1.7743   59.0525 C.2     1  ZINC001191386213    0.0700
     11 N11        -7.3649    2.8102   59.6167 N.2     1  ZINC001191386213   -0.2500
     12 N12        -6.7873    3.5439   58.7353 N.pl3   1  ZINC001191386213   -0.3800
     13 C13        -6.9690    3.0066   57.4919 C.2     1  ZINC001191386213   -0.0400
     14 C14        -6.4650    3.5436   56.2175 C.2     1  ZINC001191386213    0.6100
     15 O15        -7.1732    3.5287   55.2287 O.2     1  ZINC001191386213   -0.5100
     16 N16        -5.2187    4.0518   56.1463 N.am    1  ZINC001191386213   -0.6200
     17 C17        -4.5918    4.6182   54.9431 C.3     1  ZINC001191386213    0.0800
     18 C18        -3.1611    5.0476   55.3309 C.3     1  ZINC001191386213   -0.1200
     19 C19        -2.8665    4.1827   56.5849 C.3     1  ZINC001191386213   -0.0600
     20 H20        -2.5339    3.1842   56.3014 H       1  ZINC001191386213    0.1000
     21 C21        -1.8543    4.8530   57.4776 C.ar    1  ZINC001191386213   -0.1100
     22 C22        -2.0999    6.1198   57.9718 C.ar    1  ZINC001191386213   -0.0900
     23 C23        -1.1713    6.7350   58.7909 C.ar    1  ZINC001191386213   -0.1300
     24 C24         0.0038    6.0840   59.1161 C.ar    1  ZINC001191386213   -0.0900
     25 C25         0.2519    4.8169   58.6227 C.ar    1  ZINC001191386213   -0.1500
     26 C26        -0.6801    4.1973   57.8079 C.ar    1  ZINC001191386213    0.1100
     27 F27        -0.4386    2.9588   57.3249 F       1  ZINC001191386213   -0.1400
     28 C28        -4.2607    4.1378   57.2636 C.3     1  ZINC001191386213    0.1200
     29 C29        -7.7134    1.8558   57.6680 C.2     1  ZINC001191386213   -0.1300
     30 C30        -8.8528    0.7457   61.1352 C.ar    1  ZINC001191386213   -0.1000
     31 H31        -7.7818    0.0694   65.9169 H       1  ZINC001191386213    0.1000
     32 H32        -9.4030    0.7829   65.7409 H       1  ZINC001191386213    0.0900
     33 H33        -9.2102   -0.9857   65.7966 H       1  ZINC001191386213    0.0900
     34 H34       -10.5801   -0.3092   63.5765 H       1  ZINC001191386213    0.4100
     35 H35       -10.6968   -2.0584   61.5523 H       1  ZINC001191386213    0.1300
     36 H36       -10.4582   -2.1138   59.1054 H       1  ZINC001191386213    0.1300
     37 H37        -9.1936   -0.3519   57.9469 H       1  ZINC001191386213    0.1300
     38 H38        -6.2957    4.3587   58.9238 H       1  ZINC001191386213    0.4400
     39 H39        -4.5523    3.8650   54.1562 H       1  ZINC001191386213    0.0700
     40 H40        -5.1592    5.4841   54.6021 H       1  ZINC001191386213    0.0800
     41 H41        -2.4588    4.8171   54.5298 H       1  ZINC001191386213    0.0900
     42 H42        -3.1308    6.1087   55.5784 H       1  ZINC001191386213    0.0900
     43 H43        -3.0175    6.6297   57.7177 H       1  ZINC001191386213    0.1300
     44 H44        -1.3642    7.7252   59.1767 H       1  ZINC001191386213    0.1300
     45 H45         0.7285    6.5656   59.7558 H       1  ZINC001191386213    0.1300
     46 H46         1.1704    4.3087   58.8764 H       1  ZINC001191386213    0.1400
     47 H47        -4.4288    5.0440   57.8454 H       1  ZINC001191386213    0.0800
     48 H48        -4.3448    3.2566   57.8996 H       1  ZINC001191386213    0.0900
     49 H49        -8.0484    1.1689   56.9048 H       1  ZINC001191386213    0.1700
     50 H50        -8.4020    1.5451   61.7046 H       1  ZINC001191386213    0.1500
@<TRIPOS>BOND
     1     1     2    1
     2     1    31    1
     3     1    32    1
     4     1    33    1
     5     2     3    2
     6     2     4   am
     7     4     5    1
     8     4    34    1
     9     5    30   ar
    10     5     6   ar
    11     6     7   ar
    12     6    35    1
    13     7     8   ar
    14     7    36    1
    15     8     9   ar
    16     8    37    1
    17     9    10    1
    18     9    30   ar
    19    10    29    1
    20    10    11    2
    21    11    12    1
    22    12    13    1
    23    12    38    1
    24    13    14    1
    25    13    29    2
    26    14    15    2
    27    14    16   am
    28    16    28    1
    29    16    17    1
    30    17    18    1
    31    17    39    1
    32    17    40    1
    33    18    19    1
    34    18    41    1
    35    18    42    1
    36    19    20    1
    37    19    21    1
    38    19    28    1
    39    21    26   ar
    40    21    22   ar
    41    22    23   ar
    42    22    43    1
    43    23    24   ar
    44    23    44    1
    45    24    25   ar
    46    24    45    1
    47    25    26   ar
    48    25    46    1
    49    26    27    1
    50    28    47    1
    51    28    48    1
    52    29    49    1
    53    30    50    1
@<TRIPOS>SUBSTRUCTURE
     1 ZINC001191386213        1 TEMP              0 ****  ****    0 ROOT


##########                                Name:    ZINC000331626032
##########                DOCK_Rotatable_Bonds:                   5
##########                         Heavy_Atoms:                  25
##########                    Molecular_Weight:              339.44
##########                DOCK_Rotatable_Bonds:                   5
##########                       Formal_Charge:        -2.16067e-07
##########                     HBond_Acceptors:                   6
##########                        HBond_Donors:                   2
##########                         Heavy_Atoms:                  25
##########                          Grid_Score:          -26.529943
##########                     Grid_vdw_energy:          -25.996685
##########                      Grid_es_energy:           -0.533259
##########           Internal_energy_repulsive:           28.962646

@<TRIPOS>MOLECULE
ZINC000331626032
 50 52 1 0 0
SMALL
USER_CHARGES


@<TRIPOS>ATOM
      1 C1         -3.7704    7.1619   51.9692 C.3     1  ZINC000331626032   -0.2000
      2 C2         -3.9208    5.6681   52.2645 C.3     1  ZINC000331626032    0.0700
      3 H3         -3.1882    5.1075   51.6839 H       1  ZINC000331626032    0.1100
      4 C4         -3.6930    5.4211   53.7335 C.2     1  ZINC000331626032    0.5200
      5 O5         -4.2018    6.1516   54.5573 O.2     1  ZINC000331626032   -0.5000
      6 N6         -2.9240    4.3885   54.1319 N.am    1  ZINC000331626032   -0.5800
      7 C7         -2.3094    3.5062   53.1370 C.3     1  ZINC000331626032    0.0800
      8 C8         -2.7125    4.1592   55.4960 C.ar    1  ZINC000331626032    0.1400
      9 C9         -3.7901    4.1278   56.3716 C.ar    1  ZINC000331626032   -0.1000
     10 C10        -3.5780    3.9011   57.7173 C.ar    1  ZINC000331626032   -0.1100
     11 C11        -2.2945    3.7062   58.1934 C.ar    1  ZINC000331626032   -0.1200
     12 C12        -1.2194    3.7373   57.3242 C.ar    1  ZINC000331626032   -0.1100
     13 C13        -1.4254    3.9567   55.9763 C.ar    1  ZINC000331626032   -0.1200
     14 N14        -5.2744    5.2304   51.8984 N.3     1  ZINC000331626032   -0.5100
     15 C15        -5.4187    5.1296   50.4406 C.3     1  ZINC000331626032    0.0500
     16 C16        -6.8749    4.8144   50.0913 C.3     1  ZINC000331626032   -0.1100
     17 C17        -7.2799    3.4955   50.7552 C.3     1  ZINC000331626032   -0.1100
     18 C18        -7.0744    3.6107   52.2682 C.3     1  ZINC000331626032   -0.0400
     19 H19        -7.7206    4.3940   52.6646 H       1  ZINC000331626032    0.1000
     20 C20        -7.4157    2.2973   52.9238 C.ar    1  ZINC000331626032    0.2300
     21 C21        -7.0232    2.0418   54.2281 C.ar    1  ZINC000331626032   -0.2900
     22 C22        -7.3574    0.8210   54.7936 C.ar    1  ZINC000331626032    0.1900
     23 N23        -8.0367   -0.0582   54.0760 N.ar    1  ZINC000331626032   -0.5700
     24 C24        -8.3969    0.2176   52.8309 C.ar    1  ZINC000331626032    0.5700
     25 N25        -9.1075   -0.7254   52.1087 N.pl3   1  ZINC000331626032   -0.8200
     26 N26        -8.0981    1.3766   52.2631 N.ar    1  ZINC000331626032   -0.5700
     27 C27        -5.6125    3.9608   52.5544 C.3     1  ZINC000331626032    0.0700
     28 H28        -4.5030    7.7225   52.5498 H       1  ZINC000331626032    0.0700
     29 H29        -2.7660    7.4866   52.2409 H       1  ZINC000331626032    0.0800
     30 H30        -3.9352    7.3405   50.9066 H       1  ZINC000331626032    0.0700
     31 H31        -1.3282    3.8944   52.8637 H       1  ZINC000331626032    0.0600
     32 H32        -2.2006    2.5059   53.5562 H       1  ZINC000331626032    0.0800
     33 H33        -2.9422    3.4618   52.2505 H       1  ZINC000331626032    0.0800
     34 H34        -4.7927    4.2807   56.0005 H       1  ZINC000331626032    0.1200
     35 H35        -4.4156    3.8767   58.3987 H       1  ZINC000331626032    0.1300
     36 H36        -2.1313    3.5295   59.2463 H       1  ZINC000331626032    0.1300
     37 H37        -0.2180    3.5853   57.6992 H       1  ZINC000331626032    0.1300
     38 H38        -0.5853    3.9809   55.2980 H       1  ZINC000331626032    0.1200
     39 H39        -5.1315    6.0754   49.9809 H       1  ZINC000331626032    0.0900
     40 H40        -4.7749    4.3338   50.0660 H       1  ZINC000331626032    0.0300
     41 H41        -7.5179    5.6166   50.4533 H       1  ZINC000331626032    0.0800
     42 H42        -6.9785    4.7243   49.0099 H       1  ZINC000331626032    0.0700
     43 H43        -8.3292    3.2888   50.5448 H       1  ZINC000331626032    0.0700
     44 H44        -6.6628    2.6863   50.3645 H       1  ZINC000331626032    0.0700
     45 H45        -6.4687    2.7776   54.7916 H       1  ZINC000331626032    0.1400
     46 H46        -7.0663    0.5904   55.8078 H       1  ZINC000331626032    0.1700
     47 H47        -9.3361   -1.5760   52.5148 H       1  ZINC000331626032    0.4100
     48 H48        -9.3769   -0.5354   51.1964 H       1  ZINC000331626032    0.4100
     49 H49        -4.9677    3.1704   52.1700 H       1  ZINC000331626032    0.0400
     50 H50        -5.4660    4.0577   53.6302 H       1  ZINC000331626032    0.0800
@<TRIPOS>BOND
     1     1     2    1
     2     1    28    1
     3     1    29    1
     4     1    30    1
     5     2     3    1
     6     2     4    1
     7     2    14    1
     8     4     5    2
     9     4     6   am
    10     6     7    1
    11     6     8    1
    12     7    31    1
    13     7    32    1
    14     7    33    1
    15     8    13   ar
    16     8     9   ar
    17     9    10   ar
    18     9    34    1
    19    10    11   ar
    20    10    35    1
    21    11    12   ar
    22    11    36    1
    23    12    13   ar
    24    12    37    1
    25    13    38    1
    26    14    27    1
    27    14    15    1
    28    15    16    1
    29    15    39    1
    30    15    40    1
    31    16    17    1
    32    16    41    1
    33    16    42    1
    34    17    18    1
    35    17    43    1
    36    17    44    1
    37    18    19    1
    38    18    20    1
    39    18    27    1
    40    20    26   ar
    41    20    21   ar
    42    21    22   ar
    43    21    45    1
    44    22    23   ar
    45    22    46    1
    46    23    24   ar
    47    24    25    1
    48    24    26   ar
    49    25    47    1
    50    25    48    1
    51    27    49    1
    52    27    50    1
@<TRIPOS>SUBSTRUCTURE
     1 ZINC000331626032        1 TEMP              0 ****  ****    0 ROOT


##########                                Name:    ZINC001018437438
##########                DOCK_Rotatable_Bonds:                   8
##########                         Heavy_Atoms:                  24
##########                    Molecular_Weight:              333.39
##########                DOCK_Rotatable_Bonds:                   8
##########                       Formal_Charge:        -4.17233e-07
##########                     HBond_Acceptors:                   8
##########                        HBond_Donors:                   4
##########                         Heavy_Atoms:                  24
##########                          Grid_Score:          -26.527109
##########                     Grid_vdw_energy:          -26.449226
##########                      Grid_es_energy:           -0.077883
##########           Internal_energy_repulsive:           88.913078

@<TRIPOS>MOLECULE
ZINC001018437438
 47 49 1 0 0
SMALL
USER_CHARGES


@<TRIPOS>ATOM
      1 C1         -4.5682    5.6975   51.3545 C.3     1  ZINC001018437438   -0.1400
      2 C2         -5.0953    4.3001   51.6860 C.3     1  ZINC001018437438    0.1400
      3 H3         -4.3926    3.5492   51.3246 H       1  ZINC001018437438    0.0700
      4 C4         -5.2613    4.1602   53.2025 C.3     1  ZINC001018437438   -0.1300
      5 C5         -5.9181    2.8143   53.5178 C.3     1  ZINC001018437438   -0.1300
      6 C6         -7.3048    2.7580   52.8729 C.3     1  ZINC001018437438    0.1300
      7 H7         -7.9146    3.5793   53.2491 H       1  ZINC001018437438    0.1000
      8 N8         -7.9457    1.4824   53.2020 N.am    1  ZINC001018437438   -0.7200
      9 C9         -8.6047    1.3407   54.3691 C.2     1  ZINC001018437438    0.6000
     10 O10        -8.6686    2.2723   55.1484 O.2     1  ZINC001018437438   -0.5100
     11 C11        -9.2470    0.0588   54.7005 C.2     1  ZINC001018437438   -0.0400
     12 C12        -9.9057   -0.2611   55.8750 C.2     1  ZINC001018437438   -0.1400
     13 C13       -10.3356   -1.5799   55.7106 C.2     1  ZINC001018437438    0.0600
     14 C14       -11.1075   -2.3934   56.7171 C.3     1  ZINC001018437438   -0.0800
     15 C15       -10.7331   -2.2326   58.1919 C.3     1  ZINC001018437438   -0.1700
     16 C16       -12.0424   -1.6408   57.6662 C.3     1  ZINC001018437438   -0.1600
     17 N17        -9.9497   -1.9833   54.5270 N.2     1  ZINC001018437438   -0.2600
     18 N18        -9.3175   -1.0518   53.9084 N.pl3   1  ZINC001018437438   -0.3800
     19 C19        -7.1620    2.8819   51.3527 C.3     1  ZINC001018437438    0.1000
     20 N20        -6.4018    4.1013   51.0441 N.am    1  ZINC001018437438   -0.6100
     21 C21        -6.8961    5.0216   50.1926 C.2     1  ZINC001018437438    0.5200
     22 O22        -6.2612    6.0260   49.9498 O.2     1  ZINC001018437438   -0.4800
     23 C23        -8.2379    4.8027   49.5424 C.3     1  ZINC001018437438   -0.1700
     24 C24        -8.5120    5.9192   48.5679 C.2     1  ZINC001018437438    0.5200
     25 N25        -7.7358    6.0662   47.4760 N.am    1  ZINC001018437438   -0.8600
     26 O26        -9.4309    6.6853   48.7663 O.2     1  ZINC001018437438   -0.5000
     27 H27        -5.3167    6.4420   51.6258 H       1  ZINC001018437438    0.0700
     28 H28        -3.6519    5.8827   51.9150 H       1  ZINC001018437438    0.0500
     29 H29        -4.3604    5.7636   50.2865 H       1  ZINC001018437438    0.0800
     30 H30        -4.2834    4.2089   53.6815 H       1  ZINC001018437438    0.0900
     31 H31        -5.8903    4.9683   53.5757 H       1  ZINC001018437438    0.0700
     32 H32        -5.3007    2.0075   53.1226 H       1  ZINC001018437438    0.0700
     33 H33        -6.0149    2.7016   54.5976 H       1  ZINC001018437438    0.0800
     34 H34        -7.8958    0.7398   52.5800 H       1  ZINC001018437438    0.4000
     35 H35       -10.0554    0.3738   56.7356 H       1  ZINC001018437438    0.1700
     36 H36       -11.4204   -3.3823   56.3818 H       1  ZINC001018437438    0.1200
     37 H37       -10.7994   -3.1159   58.8272 H       1  ZINC001018437438    0.1000
     38 H38        -9.9284   -1.5384   58.4340 H       1  ZINC001018437438    0.1000
     39 H39       -12.0991   -0.5572   57.5624 H       1  ZINC001018437438    0.1000
     40 H40       -12.9700   -2.1347   57.9555 H       1  ZINC001018437438    0.1000
     41 H41        -8.9416   -1.1278   53.0174 H       1  ZINC001018437438    0.4400
     42 H42        -6.6298    2.0139   50.9637 H       1  ZINC001018437438    0.0700
     43 H43        -8.1501    2.9420   50.8965 H       1  ZINC001018437438    0.0900
     44 H44        -8.2336    3.8505   49.0120 H       1  ZINC001018437438    0.1200
     45 H45        -9.0144    4.7891   50.3071 H       1  ZINC001018437438    0.1200
     46 H46        -7.9113    6.7853   46.8492 H       1  ZINC001018437438    0.4000
     47 H47        -7.0016    5.4525   47.3168 H       1  ZINC001018437438    0.4000
@<TRIPOS>BOND
     1     1     2    1
     2     1    27    1
     3     1    28    1
     4     1    29    1
     5     2     3    1
     6     2    20    1
     7     2     4    1
     8     4     5    1
     9     4    30    1
    10     4    31    1
    11     5     6    1
    12     5    32    1
    13     5    33    1
    14     6     7    1
    15     6     8    1
    16     6    19    1
    17     8     9   am
    18     8    34    1
    19     9    10    2
    20     9    11    1
    21    11    18    1
    22    11    12    2
    23    12    13    1
    24    12    35    1
    25    13    14    1
    26    13    17    2
    27    14    16    1
    28    14    15    1
    29    14    36    1
    30    15    16    1
    31    15    37    1
    32    15    38    1
    33    16    39    1
    34    16    40    1
    35    17    18    1
    36    18    41    1
    37    19    20    1
    38    19    42    1
    39    19    43    1
    40    20    21   am
    41    21    22    2
    42    21    23    1
    43    23    24    1
    44    23    44    1
    45    23    45    1
    46    24    25   am
    47    24    26    2
    48    25    46    1
    49    25    47    1
@<TRIPOS>SUBSTRUCTURE
     1 ZINC001018437438        1 TEMP              0 ****  ****    0 ROOT


##########                                Name:    ZINC001199210165
##########                DOCK_Rotatable_Bonds:                   5
##########                         Heavy_Atoms:                  23
##########                    Molecular_Weight:             375.225
##########                DOCK_Rotatable_Bonds:                   5
##########                       Formal_Charge:         -0.00999999
##########                     HBond_Acceptors:                   6
##########                        HBond_Donors:                   2
##########                         Heavy_Atoms:                  23
##########                          Grid_Score:          -26.526958
##########                     Grid_vdw_energy:          -26.639063
##########                      Grid_es_energy:            0.112105
##########           Internal_energy_repulsive:           11.464278

@<TRIPOS>MOLECULE
ZINC001199210165
 38 40 1 0 0
SMALL
USER_CHARGES


@<TRIPOS>ATOM
      1 C1        -10.0793    3.2542   65.0816 C.3     1  ZINC001199210165   -0.1700
      2 C2        -11.3521    2.4966   65.4647 C.3     1  ZINC001199210165    0.0800
      3 C3        -12.4307    2.7445   64.4083 C.3     1  ZINC001199210165   -0.1500
      4 O4        -11.0700    1.0977   65.5382 O.3     1  ZINC001199210165   -0.3000
      5 C5         -9.9387    0.6645   64.9270 C.ar    1  ZINC001199210165    0.3300
      6 C6         -9.9093    0.5426   63.5443 C.ar    1  ZINC001199210165   -0.1300
      7 C7         -8.7378    0.0955   62.9300 C.ar    1  ZINC001199210165   -0.0600
      8 C8         -8.6587   -0.0500   61.4580 C.2     1  ZINC001199210165    0.5700
      9 O9         -8.0056   -0.9516   60.9708 O.2     1  ZINC001199210165   -0.4900
     10 N10        -9.3108    0.8178   60.6591 N.am    1  ZINC001199210165   -0.6600
     11 C11        -9.2361    0.6806   59.2698 C.ar    1  ZINC001199210165    0.2000
     12 C12        -8.3729    1.4981   58.5386 C.ar    1  ZINC001199210165   -0.1500
     13 C13        -8.2866    1.3782   57.1833 C.ar    1  ZINC001199210165   -0.0200
     14 C14        -9.0685    0.4285   56.5162 C.ar    1  ZINC001199210165   -0.1700
     15 C15        -9.2192    0.0460   55.1151 C.2     1  ZINC001199210165    0.0900
     16 Br16       -8.3009    0.8066   53.6474 Br      1  ZINC001199210165    0.0600
     17 N17       -10.0988   -0.9132   55.0567 N.2     1  ZINC001199210165   -0.2100
     18 N18       -10.5656   -1.2161   56.3399 N.pl3   1  ZINC001199210165   -0.4900
     19 C19        -9.9418   -0.4000   57.2479 C.ar    1  ZINC001199210165    0.1500
     20 C20       -10.0138   -0.2680   58.6312 C.ar    1  ZINC001199210165   -0.1700
     21 C21        -7.6403   -0.2111   63.7424 C.ar    1  ZINC001199210165   -0.1900
     22 C22        -7.7539   -0.0619   65.1097 C.ar    1  ZINC001199210165    0.1400
     23 N23        -8.8753    0.3683   65.6546 N.ar    1  ZINC001199210165   -0.5200
     24 H24        -9.7256    2.9034   64.1120 H       1  ZINC001199210165    0.0600
     25 H25       -10.2944    4.3212   65.0255 H       1  ZINC001199210165    0.0700
     26 H26        -9.3108    3.0775   65.8341 H       1  ZINC001199210165    0.0600
     27 H27       -11.7057    2.8473   66.4342 H       1  ZINC001199210165    0.0900
     28 H28       -12.0770    2.3938   63.4387 H       1  ZINC001199210165    0.0700
     29 H29       -13.3376    2.2048   64.6813 H       1  ZINC001199210165    0.0600
     30 H30       -12.6459    3.8116   64.3522 H       1  ZINC001199210165    0.0800
     31 H31       -10.7789    0.7894   62.9533 H       1  ZINC001199210165    0.1600
     32 H32        -9.8321    1.5375   61.0481 H       1  ZINC001199210165    0.4100
     33 H33        -7.7685    2.2322   59.0507 H       1  ZINC001199210165    0.1500
     34 H34        -7.6162    2.0153   56.6254 H       1  ZINC001199210165    0.1400
     35 H35       -11.2248   -1.8949   56.5532 H       1  ZINC001199210165    0.4500
     36 H36       -10.6760   -0.9011   59.2029 H       1  ZINC001199210165    0.1400
     37 H37        -6.7166   -0.5602   63.3050 H       1  ZINC001199210165    0.1400
     38 H38        -6.9110   -0.2971   65.7424 H       1  ZINC001199210165    0.1700
@<TRIPOS>BOND
     1     1     2    1
     2     1    24    1
     3     1    25    1
     4     1    26    1
     5     2     3    1
     6     2     4    1
     7     2    27    1
     8     3    28    1
     9     3    29    1
    10     3    30    1
    11     4     5    1
    12     5    23   ar
    13     5     6   ar
    14     6     7   ar
    15     6    31    1
    16     7     8    1
    17     7    21   ar
    18     8     9    2
    19     8    10   am
    20    10    11    1
    21    10    32    1
    22    11    20   ar
    23    11    12   ar
    24    12    13   ar
    25    12    33    1
    26    13    14   ar
    27    13    34    1
    28    14    19   ar
    29    14    15    1
    30    15    16    1
    31    15    17    2
    32    17    18    1
    33    18    19    1
    34    18    35    1
    35    19    20   ar
    36    20    36    1
    37    21    22   ar
    38    21    37    1
    39    22    23   ar
    40    22    38    1
@<TRIPOS>SUBSTRUCTURE
     1 ZINC001199210165        1 TEMP              0 ****  ****    0 ROOT


##########                                Name:    ZINC000277311370
##########                DOCK_Rotatable_Bonds:                   5
##########                         Heavy_Atoms:                  17
##########                    Molecular_Weight:             361.036
##########                DOCK_Rotatable_Bonds:                   5
##########                       Formal_Charge:        -7.45058e-08
##########                     HBond_Acceptors:                   4
##########                        HBond_Donors:                   1
##########                         Heavy_Atoms:                  17
##########                          Grid_Score:          -26.481968
##########                     Grid_vdw_energy:          -24.776192
##########                      Grid_es_energy:           -1.705775
##########           Internal_energy_repulsive:            9.040915

@<TRIPOS>MOLECULE
ZINC000277311370
 28 28 1 0 0
SMALL
USER_CHARGES


@<TRIPOS>ATOM
      1 C1        -12.4683   -2.7750   57.6398 C.3     1  ZINC000277311370   -0.1500
      2 C2        -12.1448   -1.7187   58.6984 C.3     1  ZINC000277311370   -0.1000
      3 C3        -13.2849   -0.7008   58.7682 C.3     1  ZINC000277311370   -0.1600
      4 C4        -11.9812   -2.3955   60.0608 C.3     1  ZINC000277311370    0.2500
      5 H5        -11.3032   -3.2437   59.9661 H       1  ZINC000277311370    0.1400
      6 C6        -13.2926   -2.8662   60.5356 C.1     1  ZINC000277311370    0.1900
      7 N7        -14.3047   -3.2294   60.9019 N.1     1  ZINC000277311370   -0.4100
      8 N8        -11.4304   -1.4350   61.0202 N.am    1  ZINC000277311370   -0.7000
      9 C9        -10.0980   -1.2469   61.0960 C.2     1  ZINC000277311370    0.5700
     10 O10        -9.3535   -1.8729   60.3674 O.2     1  ZINC000277311370   -0.4900
     11 C11        -9.5411   -0.2772   62.0671 C.ar    1  ZINC000277311370    0.1100
     12 N12        -9.5553   -0.5621   63.3636 N.ar    1  ZINC000277311370   -0.4300
     13 C13        -9.0702    0.2715   64.2588 C.ar    1  ZINC000277311370    0.1300
     14 Br14       -9.1209   -0.1945   66.0908 Br      1  ZINC000277311370    0.0200
     15 C15        -8.5221    1.4872   63.8770 C.ar    1  ZINC000277311370   -0.1100
     16 C16        -8.4869    1.8245   62.5340 C.ar    1  ZINC000277311370   -0.0400
     17 C17        -9.0010    0.9244   61.6117 C.ar    1  ZINC000277311370   -0.0900
     18 Br18       -8.9816    1.3279   59.7643 Br      1  ZINC000277311370    0.0300
     19 H19       -12.5849   -2.2929   56.6692 H       1  ZINC000277311370    0.0700
     20 H20       -11.6561   -3.5002   57.5902 H       1  ZINC000277311370    0.0700
     21 H21       -13.3944   -3.2845   57.9061 H       1  ZINC000277311370    0.0600
     22 H22       -11.2187   -1.2092   58.4322 H       1  ZINC000277311370    0.1000
     23 H23       -14.2110   -1.2103   59.0345 H       1  ZINC000277311370    0.0600
     24 H24       -13.0545    0.0516   59.5225 H       1  ZINC000277311370    0.0600
     25 H25       -13.4015   -0.2187   57.7976 H       1  ZINC000277311370    0.0700
     26 H26       -12.0247   -0.9345   61.6009 H       1  ZINC000277311370    0.4200
     27 H27        -8.1267    2.1641   64.6197 H       1  ZINC000277311370    0.1600
     28 H28        -8.0652    2.7652   62.2117 H       1  ZINC000277311370    0.1700
@<TRIPOS>BOND
     1     1     2    1
     2     1    19    1
     3     1    20    1
     4     1    21    1
     5     2     3    1
     6     2     4    1
     7     2    22    1
     8     3    23    1
     9     3    24    1
    10     3    25    1
    11     4     5    1
    12     4     6    1
    13     4     8    1
    14     6     7    3
    15     8     9   am
    16     8    26    1
    17     9    10    2
    18     9    11    1
    19    11    17   ar
    20    11    12   ar
    21    12    13   ar
    22    13    14    1
    23    13    15   ar
    24    15    16   ar
    25    15    27    1
    26    16    17   ar
    27    16    28    1
    28    17    18    1
@<TRIPOS>SUBSTRUCTURE
     1 ZINC000277311370        1 TEMP              0 ****  ****    0 ROOT


##########                                Name:    ZINC000329637067
##########                DOCK_Rotatable_Bonds:                   5
##########                         Heavy_Atoms:                  26
##########                    Molecular_Weight:             362.429
##########                DOCK_Rotatable_Bonds:                   5
##########                       Formal_Charge:           0.0199998
##########                     HBond_Acceptors:                   8
##########                        HBond_Donors:                   0
##########                         Heavy_Atoms:                  26
##########                          Grid_Score:          -26.448843
##########                     Grid_vdw_energy:          -23.723562
##########                      Grid_es_energy:           -2.725281
##########           Internal_energy_repulsive:           27.135851

@<TRIPOS>MOLECULE
ZINC000329637067
 52 54 1 0 0
SMALL
USER_CHARGES


@<TRIPOS>ATOM
      1 C1         -7.1869    2.6680   57.6918 C.3     1  ZINC000329637067   -0.1300
      2 C2         -8.0008    1.7196   56.8496 C.2     1  ZINC000329637067    0.2200
      3 C3         -7.6283    1.4411   55.5713 C.2     1  ZINC000329637067   -0.2900
      4 C4         -8.4035    0.5574   54.8148 C.2     1  ZINC000329637067    0.2800
      5 C5         -8.0114    0.2325   53.3964 C.3     1  ZINC000329637067   -0.1200
      6 N6         -9.4777    0.0087   55.3452 N.2     1  ZINC000329637067   -0.5500
      7 C7         -9.8384    0.2859   56.6006 C.2     1  ZINC000329637067    0.6400
      8 O8        -10.8370   -0.2353   57.0679 O.2     1  ZINC000329637067   -0.5300
      9 N9         -9.1124    1.1278   57.3597 N.am    1  ZINC000329637067   -0.5000
     10 C10        -9.5283    1.4158   58.7346 C.3     1  ZINC000329637067    0.0700
     11 C11        -9.0729    0.3013   59.6411 C.2     1  ZINC000329637067    0.5100
     12 O12        -8.3003   -0.5380   59.2291 O.2     1  ZINC000329637067   -0.5200
     13 N13        -9.5240    0.2373   60.9094 N.am    1  ZINC000329637067   -0.6100
     14 C14        -9.0891   -0.8432   61.8050 C.3     1  ZINC000329637067    0.1000
     15 C15        -8.5289   -0.2238   63.0892 C.3     1  ZINC000329637067   -0.1400
     16 C16        -9.5747    0.7137   63.6970 C.3     1  ZINC000329637067   -0.1000
     17 C17        -9.8844    1.8427   62.7115 C.3     1  ZINC000329637067   -0.1200
     18 H18        -8.9684    2.3875   62.4828 H       1  ZINC000329637067    0.1000
     19 C19       -10.8895    2.7837   63.3241 C.2     1  ZINC000329637067    0.5300
     20 O20       -12.0506    2.7409   62.9764 O.2     1  ZINC000329637067   -0.5300
     21 N21       -10.4981    3.6728   64.2583 N.am    1  ZINC000329637067   -0.6200
     22 C22        -9.0938    3.7475   64.6916 C.3     1  ZINC000329637067    0.0800
     23 C23        -8.6405    5.2098   64.6121 C.3     1  ZINC000329637067    0.0500
     24 O24        -9.5695    6.0299   65.3251 O.3     1  ZINC000329637067   -0.3800
     25 C25       -10.8937    6.0186   64.7864 C.3     1  ZINC000329637067    0.0500
     26 C26       -11.4613    4.6016   64.8707 C.3     1  ZINC000329637067    0.0700
     27 C27       -10.4552    1.2502   61.4248 C.3     1  ZINC000329637067    0.1200
     28 H28        -6.8875    2.1696   58.6138 H       1  ZINC000329637067    0.0900
     29 H29        -6.2987    2.9739   57.1390 H       1  ZINC000329637067    0.1000
     30 H30        -7.7861    3.5464   57.9317 H       1  ZINC000329637067    0.0900
     31 H31        -6.7460    1.8969   55.1466 H       1  ZINC000329637067    0.1600
     32 H32        -7.3487   -0.6329   53.3919 H       1  ZINC000329637067    0.1000
     33 H33        -8.9054    0.0086   52.8144 H       1  ZINC000329637067    0.0900
     34 H34        -7.4964    1.0869   52.9571 H       1  ZINC000329637067    0.0900
     35 H35        -9.0810    2.3548   59.0604 H       1  ZINC000329637067    0.1200
     36 H36       -10.6145    1.4970   58.7761 H       1  ZINC000329637067    0.1300
     37 H37        -9.9390   -1.4811   62.0475 H       1  ZINC000329637067    0.0800
     38 H38        -8.3143   -1.4337   61.3159 H       1  ZINC000329637067    0.0900
     39 H39        -8.2916   -1.0145   63.8010 H       1  ZINC000329637067    0.0900
     40 H40        -7.6256    0.3403   62.8570 H       1  ZINC000329637067    0.0700
     41 H41       -10.4863    0.1540   63.9062 H       1  ZINC000329637067    0.0800
     42 H42        -9.1879    1.1368   64.6241 H       1  ZINC000329637067    0.0800
     43 H43        -9.0069    3.3915   65.7181 H       1  ZINC000329637067    0.0800
     44 H44        -8.4744    3.1351   64.0364 H       1  ZINC000329637067    0.1000
     45 H45        -7.6507    5.3089   65.0577 H       1  ZINC000329637067    0.1100
     46 H46        -8.6040    5.5235   63.5689 H       1  ZINC000329637067    0.0600
     47 H47       -11.5248    6.6995   65.3575 H       1  ZINC000329637067    0.1100
     48 H48       -10.8653    6.3352   63.7439 H       1  ZINC000329637067    0.0600
     49 H49       -12.4101    4.5538   64.3365 H       1  ZINC000329637067    0.1000
     50 H50       -11.6131    4.3285   65.9150 H       1  ZINC000329637067    0.0800
     51 H51       -10.5844    2.0400   60.6847 H       1  ZINC000329637067    0.1000
     52 H52       -11.4169    0.7815   61.6336 H       1  ZINC000329637067    0.0800
@<TRIPOS>BOND
     1     1     2    1
     2     1    28    1
     3     1    29    1
     4     1    30    1
     5     2     9    1
     6     2     3    2
     7     3     4    1
     8     3    31    1
     9     4     5    1
    10     4     6    2
    11     5    32    1
    12     5    33    1
    13     5    34    1
    14     6     7    1
    15     7     8    2
    16     7     9   am
    17     9    10    1
    18    10    11    1
    19    10    35    1
    20    10    36    1
    21    11    12    2
    22    11    13   am
    23    13    27    1
    24    13    14    1
    25    14    15    1
    26    14    37    1
    27    14    38    1
    28    15    16    1
    29    15    39    1
    30    15    40    1
    31    16    17    1
    32    16    41    1
    33    16    42    1
    34    17    18    1
    35    17    19    1
    36    17    27    1
    37    19    20    2
    38    19    21   am
    39    21    26    1
    40    21    22    1
    41    22    23    1
    42    22    43    1
    43    22    44    1
    44    23    24    1
    45    23    45    1
    46    23    46    1
    47    24    25    1
    48    25    26    1
    49    25    47    1
    50    25    48    1
    51    26    49    1
    52    26    50    1
    53    27    51    1
    54    27    52    1
@<TRIPOS>SUBSTRUCTURE
     1 ZINC000329637067        1 TEMP              0 ****  ****    0 ROOT


##########                                Name:    ZINC001456096501
##########                DOCK_Rotatable_Bonds:                   7
##########                         Heavy_Atoms:                  24
##########                    Molecular_Weight:             333.431
##########                DOCK_Rotatable_Bonds:                   7
##########                       Formal_Charge:          -0.0200003
##########                     HBond_Acceptors:                   6
##########                        HBond_Donors:                   0
##########                         Heavy_Atoms:                  24
##########                          Grid_Score:          -26.429590
##########                     Grid_vdw_energy:          -26.023064
##########                      Grid_es_energy:           -0.406526
##########           Internal_energy_repulsive:          129.697815

@<TRIPOS>MOLECULE
ZINC001456096501
 51 52 1 0 0
SMALL
USER_CHARGES


@<TRIPOS>ATOM
      1 C1         -9.1166   -1.1122   52.1599 C.3     1  ZINC001456096501    0.0400
      2 O2         -9.9371   -0.8439   53.2987 O.3     1  ZINC001456096501   -0.2900
      3 C3        -11.0680   -0.1296   53.0870 C.ar    1  ZINC001456096501    0.3700
      4 N4        -11.6480   -0.1541   51.8992 N.ar    1  ZINC001456096501   -0.5400
      5 C5        -12.7504    0.5260   51.6497 C.ar    1  ZINC001456096501    0.1600
      6 C6        -13.3513    1.2993   52.6264 C.ar    1  ZINC001456096501   -0.2200
      7 C7        -12.7868    1.3615   53.8882 C.ar    1  ZINC001456096501   -0.0200
      8 C8        -11.6204    0.6275   54.1314 C.ar    1  ZINC001456096501   -0.2000
      9 C9        -10.9772    0.6573   55.4588 C.2     1  ZINC001456096501    0.5900
     10 O10       -10.3487    1.6378   55.8079 O.2     1  ZINC001456096501   -0.5100
     11 N11       -11.0864   -0.4024   56.2844 N.am    1  ZINC001456096501   -0.6200
     12 C12       -11.8131   -1.6463   55.9905 C.3     1  ZINC001456096501    0.1000
     13 C13       -11.6858   -2.5551   57.2312 C.3     1  ZINC001456096501   -0.1200
     14 C14       -11.3739   -1.5479   58.3694 C.3     1  ZINC001456096501   -0.1200
     15 H15       -12.2880   -1.0904   58.7477 H       1  ZINC001456096501    0.0900
     16 C16       -10.5932   -2.2220   59.4995 C.3     1  ZINC001456096501    0.1200
     17 N17        -9.9556   -1.1980   60.3309 N.am    1  ZINC001456096501   -0.6200
     18 C18        -8.4996   -1.0378   60.3076 C.3     1  ZINC001456096501    0.0600
     19 C19       -10.7085   -0.4032   61.1169 C.2     1  ZINC001456096501    0.5200
     20 O20       -11.9138   -0.5358   61.1362 O.2     1  ZINC001456096501   -0.5300
     21 C21       -10.0526    0.6501   61.9720 C.3     1  ZINC001456096501   -0.0800
     22 C22        -9.3286   -0.0203   63.1414 C.3     1  ZINC001456096501   -0.1300
     23 C23        -9.0443    1.4351   61.1305 C.3     1  ZINC001456096501   -0.1500
     24 C24       -11.1188    1.6051   62.5125 C.3     1  ZINC001456096501   -0.1700
     25 C25       -10.4915   -0.5088   57.6291 C.3     1  ZINC001456096501    0.1200
     26 H26        -9.6883   -1.6797   51.4256 H       1  ZINC001456096501    0.0600
     27 H27        -8.7900   -0.1710   51.7174 H       1  ZINC001456096501    0.0600
     28 H28        -8.2454   -1.6905   52.4678 H       1  ZINC001456096501    0.1000
     29 H29       -13.1914    0.4785   50.6651 H       1  ZINC001456096501    0.1700
     30 H30       -14.2535    1.8505   52.4058 H       1  ZINC001456096501    0.1500
     31 H31       -13.2373    1.9586   54.6672 H       1  ZINC001456096501    0.1500
     32 H32       -12.8631   -1.4257   55.7987 H       1  ZINC001456096501    0.0700
     33 H33       -11.3711   -2.1380   55.1240 H       1  ZINC001456096501    0.0700
     34 H34       -12.6229   -3.0773   57.4244 H       1  ZINC001456096501    0.0900
     35 H35       -10.8667   -3.2636   57.1079 H       1  ZINC001456096501    0.0800
     36 H36       -11.2756   -2.8129   60.1104 H       1  ZINC001456096501    0.0800
     37 H37        -9.8289   -2.8731   59.0750 H       1  ZINC001456096501    0.0900
     38 H38        -8.2288   -0.2826   59.5698 H       1  ZINC001456096501    0.0600
     39 H39        -8.1527   -0.7244   61.2923 H       1  ZINC001456096501    0.0900
     40 H40        -8.0337   -1.9872   60.0434 H       1  ZINC001456096501    0.0700
     41 H41        -8.5690   -0.7006   62.7564 H       1  ZINC001456096501    0.0600
     42 H42        -8.8542    0.7415   63.7598 H       1  ZINC001456096501    0.0600
     43 H43       -10.0470   -0.5796   63.7408 H       1  ZINC001456096501    0.0600
     44 H44        -9.5324    1.8028   60.2280 H       1  ZINC001456096501    0.0700
     45 H45        -8.6669    2.2785   61.7088 H       1  ZINC001456096501    0.0700
     46 H46        -8.2151    0.7833   60.8554 H       1  ZINC001456096501    0.0600
     47 H47       -11.8372    1.0459   63.1119 H       1  ZINC001456096501    0.0600
     48 H48       -10.6444    2.3669   63.1310 H       1  ZINC001456096501    0.0700
     49 H49       -11.6346    2.0827   61.6794 H       1  ZINC001456096501    0.0800
     50 H50        -9.4617   -0.8608   57.5673 H       1  ZINC001456096501    0.0800
     51 H51       -10.5340    0.4551   58.1363 H       1  ZINC001456096501    0.0700
@<TRIPOS>BOND
     1     1     2    1
     2     1    26    1
     3     1    27    1
     4     1    28    1
     5     2     3    1
     6     3     8   ar
     7     3     4   ar
     8     4     5   ar
     9     5     6   ar
    10     5    29    1
    11     6     7   ar
    12     6    30    1
    13     7     8   ar
    14     7    31    1
    15     8     9    1
    16     9    10    2
    17     9    11   am
    18    11    25    1
    19    11    12    1
    20    12    13    1
    21    12    32    1
    22    12    33    1
    23    13    14    1
    24    13    34    1
    25    13    35    1
    26    14    15    1
    27    14    16    1
    28    14    25    1
    29    16    17    1
    30    16    36    1
    31    16    37    1
    32    17    18    1
    33    17    19   am
    34    18    38    1
    35    18    39    1
    36    18    40    1
    37    19    20    2
    38    19    21    1
    39    21    22    1
    40    21    23    1
    41    21    24    1
    42    22    41    1
    43    22    42    1
    44    22    43    1
    45    23    44    1
    46    23    45    1
    47    23    46    1
    48    24    47    1
    49    24    48    1
    50    24    49    1
    51    25    50    1
    52    25    51    1
@<TRIPOS>SUBSTRUCTURE
     1 ZINC001456096501        1 TEMP              0 ****  ****    0 ROOT


##########                                Name:    ZINC000478980774
##########                DOCK_Rotatable_Bonds:                   4
##########                         Heavy_Atoms:                  26
##########                    Molecular_Weight:             401.818
##########                DOCK_Rotatable_Bonds:                   4
##########                       Formal_Charge:          -0.0100001
##########                     HBond_Acceptors:                   9
##########                        HBond_Donors:                   1
##########                         Heavy_Atoms:                  26
##########                          Grid_Score:          -26.414505
##########                     Grid_vdw_energy:          -26.190140
##########                      Grid_es_energy:           -0.224365
##########           Internal_energy_repulsive:            6.358772

@<TRIPOS>MOLECULE
ZINC000478980774
 40 42 1 0 0
SMALL
USER_CHARGES


@<TRIPOS>ATOM
      1 C1        -10.7402   -0.3845   61.1243 C.3     1  ZINC000478980774   -0.1400
      2 C2         -9.2482   -0.1398   61.3582 C.3     1  ZINC000478980774   -0.4600
      3 H3         -8.7890   -1.0457   61.7542 H       1  ZINC000478980774    0.1500
      4 C4         -8.5890    0.2285   60.0540 C.2     1  ZINC000478980774    0.5400
      5 O5         -7.8132   -0.5412   59.5279 O.2     1  ZINC000478980774   -0.5000
      6 N6         -8.8615    1.4134   59.4723 N.am    1  ZINC000478980774   -0.6600
      7 C7         -8.2487    1.7558   58.2599 C.ar    1  ZINC000478980774    0.1600
      8 C8         -7.0634    2.4781   58.2608 C.ar    1  ZINC000478980774   -0.1200
      9 C9         -6.4580    2.8172   57.0654 C.ar    1  ZINC000478980774   -0.0600
     10 C10        -7.0319    2.4374   55.8634 C.ar    1  ZINC000478980774    0.0100
     11 O11        -6.6426    2.6435   54.5704 O.3     1  ZINC000478980774   -0.2900
     12 C12        -7.3848    1.6887   53.7890 C.3     1  ZINC000478980774    0.5700
     13 F13        -7.7067    2.2228   52.5366 F       1  ZINC000478980774   -0.1100
     14 F14        -6.6585    0.5019   53.6436 F       1  ZINC000478980774   -0.1500
     15 O15        -8.5767    1.4641   54.5647 O.3     1  ZINC000478980774   -0.2800
     16 C16        -8.2215    1.7121   55.8592 C.ar    1  ZINC000478980774    0.0500
     17 C17        -8.8242    1.3679   57.0571 C.ar    1  ZINC000478980774   -0.0900
     18 S18        -9.0364    1.2145   62.5464 S.o     1  ZINC000478980774    1.3000
     19 O19        -9.6065    2.4032   62.0162 O.2     1  ZINC000478980774   -0.7800
     20 C20       -10.0100    0.6612   63.9734 C.3     1  ZINC000478980774   -0.4300
     21 C21        -9.9333    1.6967   65.0657 C.ar    1  ZINC000478980774   -0.0600
     22 C22       -10.8681    2.7129   65.1214 C.ar    1  ZINC000478980774   -0.1100
     23 C23       -10.7979    3.6631   66.1234 C.ar    1  ZINC000478980774   -0.1100
     24 C24        -9.7925    3.5975   67.0695 C.ar    1  ZINC000478980774   -0.1100
     25 C25        -8.8567    2.5814   67.0148 C.ar    1  ZINC000478980774   -0.1100
     26 C26        -8.9301    1.6270   66.0162 C.ar    1  ZINC000478980774   -0.0300
     27 Cl27       -7.7554    0.3506   65.9468 Cl      1  ZINC000478980774   -0.0600
     28 H28       -11.2169   -0.6509   62.0676 H       1  ZINC000478980774    0.0800
     29 H29       -11.1992    0.5214   60.7284 H       1  ZINC000478980774    0.0700
     30 H30       -10.8675   -1.1982   60.4104 H       1  ZINC000478980774    0.0700
     31 H31        -9.4818    2.0290   59.8930 H       1  ZINC000478980774    0.4200
     32 H32        -6.6140    2.7758   59.1967 H       1  ZINC000478980774    0.1500
     33 H33        -5.5360    3.3794   57.0687 H       1  ZINC000478980774    0.1500
     34 H34        -9.7436    0.8015   57.0562 H       1  ZINC000478980774    0.1600
     35 H35       -11.0491    0.5255   63.6738 H       1  ZINC000478980774    0.1100
     36 H36        -9.6113   -0.2844   64.3407 H       1  ZINC000478980774    0.1300
     37 H37       -11.6535    2.7651   64.3820 H       1  ZINC000478980774    0.1400
     38 H38       -11.5288    4.4571   66.1665 H       1  ZINC000478980774    0.1300
     39 H39        -9.7377    4.3403   67.8515 H       1  ZINC000478980774    0.1300
     40 H40        -8.0712    2.5302   67.7542 H       1  ZINC000478980774    0.1300
@<TRIPOS>BOND
     1     1     2    1
     2     1    28    1
     3     1    29    1
     4     1    30    1
     5     2     3    1
     6     2     4    1
     7     2    18    1
     8     4     5    2
     9     4     6   am
    10     6     7    1
    11     6    31    1
    12     7    17   ar
    13     7     8   ar
    14     8     9   ar
    15     8    32    1
    16     9    10   ar
    17     9    33    1
    18    10    16   ar
    19    10    11    1
    20    11    12    1
    21    12    13    1
    22    12    14    1
    23    12    15    1
    24    15    16    1
    25    16    17   ar
    26    17    34    1
    27    18    19    2
    28    18    20    1
    29    20    21    1
    30    20    35    1
    31    20    36    1
    32    21    26   ar
    33    21    22   ar
    34    22    23   ar
    35    22    37    1
    36    23    24   ar
    37    23    38    1
    38    24    25   ar
    39    24    39    1
    40    25    26   ar
    41    25    40    1
    42    26    27    1
@<TRIPOS>SUBSTRUCTURE
     1 ZINC000478980774        1 TEMP              0 ****  ****    0 ROOT


##########                                Name:    ZINC000004040798
##########                DOCK_Rotatable_Bonds:                   3
##########                         Heavy_Atoms:                  22
##########                    Molecular_Weight:             361.151
##########                DOCK_Rotatable_Bonds:                   3
##########                       Formal_Charge:           0.0200003
##########                     HBond_Acceptors:                   6
##########                        HBond_Donors:                   1
##########                         Heavy_Atoms:                  22
##########                          Grid_Score:          -26.362593
##########                     Grid_vdw_energy:          -26.938330
##########                      Grid_es_energy:            0.575737
##########           Internal_energy_repulsive:            2.225744

@<TRIPOS>MOLECULE
ZINC000004040798
 31 33 1 0 0
SMALL
USER_CHARGES


@<TRIPOS>ATOM
      1 O1         -8.2188   -0.8763   59.5391 O.2     1  ZINC000004040798   -0.4800
      2 C2         -8.6903    0.2146   59.7995 C.2     1  ZINC000004040798    0.6100
      3 N3         -9.1684    0.9957   58.8107 N.am    1  ZINC000004040798   -0.6600
      4 C4         -9.1174    0.5547   57.4846 C.ar    1  ZINC000004040798    0.2300
      5 C5         -9.9554   -0.4671   57.0583 C.ar    1  ZINC000004040798   -0.1300
      6 C6         -9.9024   -0.9007   55.7477 C.ar    1  ZINC000004040798   -0.0100
      7 C7         -9.0163   -0.3186   54.8603 C.ar    1  ZINC000004040798   -0.0600
      8 N8         -8.9627   -0.7860   53.4569 N.pl3   1  ZINC000004040798    0.0300
      9 O9         -9.6987   -1.6825   53.0850 O.2     1  ZINC000004040798   -0.1500
     10 O10        -8.1827   -0.2742   52.6738 O.2     1  ZINC000004040798   -0.1500
     11 C11        -8.1803    0.6998   55.2807 C.ar    1  ZINC000004040798    0.0000
     12 C12        -8.2316    1.1419   56.5887 C.ar    1  ZINC000004040798   -0.1400
     13 Br13       -7.0882    2.5344   57.1629 Br      1  ZINC000004040798    0.0000
     14 C14        -8.7440    0.6781   61.1929 C.2     1  ZINC000004040798   -0.0500
     15 C15        -9.1173    1.9225   61.5889 C.2     1  ZINC000004040798   -0.0800
     16 C16        -9.0195    1.9297   63.0481 C.ar    1  ZINC000004040798   -0.1500
     17 C17        -9.2603    2.8879   64.0353 C.ar    1  ZINC000004040798   -0.0500
     18 C18        -9.0675    2.5689   65.3501 C.ar    1  ZINC000004040798   -0.1400
     19 C19        -8.6341    1.3003   65.7098 C.ar    1  ZINC000004040798   -0.0700
     20 C20        -8.3909    0.3406   64.7509 C.ar    1  ZINC000004040798   -0.1100
     21 C21        -8.5804    0.6414   63.4072 C.ar    1  ZINC000004040798    0.0800
     22 O22        -8.4353   -0.0704   62.2726 O.3     1  ZINC000004040798   -0.1900
     23 H23        -9.5480    1.8638   59.0189 H       1  ZINC000004040798    0.4300
     24 H24       -10.6476   -0.9228   57.7509 H       1  ZINC000004040798    0.1800
     25 H25       -10.5538   -1.6957   55.4160 H       1  ZINC000004040798    0.1700
     26 H26        -7.4892    1.1524   54.5850 H       1  ZINC000004040798    0.1700
     27 H27        -9.4238    2.7412   60.9546 H       1  ZINC000004040798    0.1800
     28 H28        -9.5969    3.8766   63.7608 H       1  ZINC000004040798    0.1400
     29 H29        -9.2532    3.3090   66.1144 H       1  ZINC000004040798    0.1400
     30 H30        -8.4853    1.0627   66.7528 H       1  ZINC000004040798    0.1400
     31 H31        -8.0543   -0.6432   65.0428 H       1  ZINC000004040798    0.1400
@<TRIPOS>BOND
     1     1     2    2
     2     2     3   am
     3     2    14    1
     4     3     4    1
     5     3    23    1
     6     4    12   ar
     7     4     5   ar
     8     5     6   ar
     9     5    24    1
    10     6     7   ar
    11     6    25    1
    12     7     8    1
    13     7    11   ar
    14     8     9    2
    15     8    10    2
    16    11    12   ar
    17    11    26    1
    18    12    13    1
    19    14    22    1
    20    14    15    2
    21    15    16    1
    22    15    27    1
    23    16    21   ar
    24    16    17   ar
    25    17    18   ar
    26    17    28    1
    27    18    19   ar
    28    18    29    1
    29    19    20   ar
    30    19    30    1
    31    20    21   ar
    32    20    31    1
    33    21    22    1
@<TRIPOS>SUBSTRUCTURE
     1 ZINC000004040798        1 TEMP              0 ****  ****    0 ROOT


##########                                Name:    ZINC000966038509
##########                DOCK_Rotatable_Bonds:                   5
##########                         Heavy_Atoms:                  25
##########                    Molecular_Weight:             346.445
##########                DOCK_Rotatable_Bonds:                   5
##########                       Formal_Charge:           0.0299998
##########                     HBond_Acceptors:                   5
##########                        HBond_Donors:                   1
##########                         Heavy_Atoms:                  25
##########                          Grid_Score:          -26.346588
##########                     Grid_vdw_energy:          -26.376171
##########                      Grid_es_energy:            0.029583
##########           Internal_energy_repulsive:           17.901964

@<TRIPOS>MOLECULE
ZINC000966038509
 52 54 1 0 0
SMALL
USER_CHARGES


@<TRIPOS>ATOM
      1 C1        -13.4334   -2.5927   60.4019 C.3     1  ZINC000966038509   -0.1200
      2 C2        -13.4434   -2.4348   58.9032 C.ar    1  ZINC000966038509   -0.0100
      3 C3        -14.6352   -2.4784   58.2122 C.ar    1  ZINC000966038509   -0.1600
      4 C4        -14.6456   -2.3338   56.8333 C.ar    1  ZINC000966038509    0.1300
      5 F5        -15.8166   -2.3778   56.1608 F       1  ZINC000966038509   -0.1300
      6 C6        -13.4588   -2.1437   56.1421 C.ar    1  ZINC000966038509   -0.1600
      7 C7        -12.2614   -2.0985   56.8232 C.ar    1  ZINC000966038509   -0.0100
      8 C8        -10.9721   -1.8923   56.0705 C.3     1  ZINC000966038509   -0.1200
      9 C9        -12.2456   -2.2383   58.2126 C.ar    1  ZINC000966038509   -0.1500
     10 C10       -10.9653   -2.1906   58.9479 C.2     1  ZINC000966038509    0.5700
     11 O11       -10.3948   -3.2229   59.2427 O.2     1  ZINC000966038509   -0.5200
     12 N12       -10.4294   -1.0027   59.2920 N.am    1  ZINC000966038509   -0.7100
     13 C13        -9.1589   -0.9555   60.0197 C.3     1  ZINC000966038509    0.1300
     14 H14        -8.7286   -1.9524   60.1156 H       1  ZINC000966038509    0.1200
     15 C15        -8.1636    0.0155   59.3367 C.3     1  ZINC000966038509    0.0900
     16 N16        -8.5632    1.3556   59.8036 N.am    1  ZINC000966038509   -0.6200
     17 C17        -8.3182    2.5159   59.1631 C.2     1  ZINC000966038509    0.5400
     18 O18        -8.6957    3.5643   59.6418 O.2     1  ZINC000966038509   -0.5300
     19 C19        -7.5750    2.5104   57.8522 C.3     1  ZINC000966038509   -0.1100
     20 C20        -8.5065    2.9595   56.6990 C.3     1  ZINC000966038509   -0.1100
     21 C21        -7.5073    3.4727   55.6326 C.3     1  ZINC000966038509   -0.1200
     22 C22        -6.4083    4.1793   56.4529 C.3     1  ZINC000966038509   -0.1200
     23 C23        -6.4513    3.5674   57.8641 C.3     1  ZINC000966038509   -0.1100
     24 C24        -9.2740    1.2165   61.0830 C.3     1  ZINC000966038509    0.1000
     25 C25        -9.3388   -0.2913   61.4103 C.3     1  ZINC000966038509   -0.1100
     26 H26        -8.5283   -0.5754   62.0815 H       1  ZINC000966038509    0.1000
     27 C27       -10.6950   -0.6555   62.0179 C.3     1  ZINC000966038509   -0.1400
     28 H28       -13.5357   -1.6141   60.8710 H       1  ZINC000966038509    0.0800
     29 H29       -14.2641   -3.2298   60.7056 H       1  ZINC000966038509    0.0800
     30 H30       -12.4934   -3.0484   60.7130 H       1  ZINC000966038509    0.0700
     31 H31       -15.5625   -2.6259   58.7458 H       1  ZINC000966038509    0.1400
     32 H32       -13.4726   -2.0313   55.0680 H       1  ZINC000966038509    0.1400
     33 H33       -10.7610   -0.8256   55.9968 H       1  ZINC000966038509    0.0800
     34 H34       -10.1587   -2.3879   56.6006 H       1  ZINC000966038509    0.0700
     35 H35       -11.0641   -2.3146   55.0699 H       1  ZINC000966038509    0.0800
     36 H36       -10.8852   -0.1791   59.0579 H       1  ZINC000966038509    0.4000
     37 H37        -7.1430   -0.2062   59.6485 H       1  ZINC000966038509    0.0800
     38 H38        -8.2528   -0.0506   58.2524 H       1  ZINC000966038509    0.0800
     39 H39        -7.1654    1.5205   57.6509 H       1  ZINC000966038509    0.0900
     40 H40        -9.0810    2.1161   56.3158 H       1  ZINC000966038509    0.0700
     41 H41        -9.1678    3.7616   57.0267 H       1  ZINC000966038509    0.0700
     42 H42        -7.0871    2.6387   55.0707 H       1  ZINC000966038509    0.0700
     43 H43        -7.9955    4.1790   54.9610 H       1  ZINC000966038509    0.0700
     44 H44        -5.4328    4.0037   55.9994 H       1  ZINC000966038509    0.0700
     45 H45        -6.6099    5.2493   56.5036 H       1  ZINC000966038509    0.0700
     46 H46        -6.6738    4.3404   58.5997 H       1  ZINC000966038509    0.0800
     47 H47        -5.4968    3.0949   58.0955 H       1  ZINC000966038509    0.0700
     48 H48        -8.7309    1.7431   61.8678 H       1  ZINC000966038509    0.0800
     49 H49       -10.2825    1.6198   60.9926 H       1  ZINC000966038509    0.0700
     50 H50       -11.4888   -0.3909   61.3192 H       1  ZINC000966038509    0.0600
     51 H51       -10.7281   -1.7267   62.2167 H       1  ZINC000966038509    0.0700
     52 H52       -10.8342   -0.1084   62.9502 H       1  ZINC000966038509    0.0700
@<TRIPOS>BOND
     1     1     2    1
     2     1    28    1
     3     1    29    1
     4     1    30    1
     5     2     9   ar
     6     2     3   ar
     7     3     4   ar
     8     3    31    1
     9     4     5    1
    10     4     6   ar
    11     6     7   ar
    12     6    32    1
    13     7     8    1
    14     7     9   ar
    15     8    33    1
    16     8    34    1
    17     8    35    1
    18     9    10    1
    19    10    11    2
    20    10    12   am
    21    12    13    1
    22    12    36    1
    23    13    14    1
    24    13    25    1
    25    13    15    1
    26    15    16    1
    27    15    37    1
    28    15    38    1
    29    16    17   am
    30    16    24    1
    31    17    18    2
    32    17    19    1
    33    19    23    1
    34    19    20    1
    35    19    39    1
    36    20    21    1
    37    20    40    1
    38    20    41    1
    39    21    22    1
    40    21    42    1
    41    21    43    1
    42    22    23    1
    43    22    44    1
    44    22    45    1
    45    23    46    1
    46    23    47    1
    47    24    25    1
    48    24    48    1
    49    24    49    1
    50    25    26    1
    51    25    27    1
    52    27    50    1
    53    27    51    1
    54    27    52    1
@<TRIPOS>SUBSTRUCTURE
     1 ZINC000966038509        1 TEMP              0 ****  ****    0 ROOT


##########                                Name:    ZINC000800038938
##########                DOCK_Rotatable_Bonds:                   6
##########                         Heavy_Atoms:                  25
##########                    Molecular_Weight:             386.274
##########                DOCK_Rotatable_Bonds:                   6
##########                       Formal_Charge:           0.0200003
##########                     HBond_Acceptors:                   7
##########                        HBond_Donors:                   0
##########                         Heavy_Atoms:                  25
##########                          Grid_Score:          -26.278448
##########                     Grid_vdw_energy:          -25.828516
##########                      Grid_es_energy:           -0.449933
##########           Internal_energy_repulsive:           12.548391

@<TRIPOS>MOLECULE
ZINC000800038938
 46 48 1 0 0
SMALL
USER_CHARGES


@<TRIPOS>ATOM
      1 C1        -10.5858    0.5556   51.9334 C.3     1  ZINC000800038938    0.0300
      2 O2         -9.9080   -0.0362   53.0436 O.3     1  ZINC000800038938   -0.3800
      3 C3        -10.6570   -1.0584   53.7041 C.3     1  ZINC000800038938    0.0900
      4 H4        -10.8597   -1.8773   53.0139 H       1  ZINC000800038938    0.0700
      5 C5        -11.9821   -0.4793   54.2409 C.3     1  ZINC000800038938   -0.1400
      6 C6        -12.1941   -1.2055   55.5925 C.3     1  ZINC000800038938   -0.1400
      7 C7        -10.7562   -1.2957   56.1612 C.3     1  ZINC000800038938    0.0900
      8 H8        -10.4697   -0.3522   56.6258 H       1  ZINC000800038938    0.0900
      9 O9        -10.6554   -2.3831   57.1182 O.3     1  ZINC000800038938   -0.3500
     10 C10       -10.7056   -2.0565   58.4192 C.2     1  ZINC000800038938    0.4500
     11 O11        -9.9613   -2.5925   59.2057 O.2     1  ZINC000800038938   -0.4800
     12 C12       -11.6903   -1.0215   58.8989 C.3     1  ZINC000800038938    0.1500
     13 H13       -11.8804   -0.2961   58.1077 H       1  ZINC000800038938    0.1200
     14 C14       -13.0108   -1.7052   59.3123 C.3     1  ZINC000800038938   -0.1200
     15 C15       -13.4404   -0.9006   60.5675 C.3     1  ZINC000800038938   -0.1300
     16 C16       -12.0709   -0.5895   61.2213 C.3     1  ZINC000800038938    0.0900
     17 N17       -11.1584   -0.3379   60.0868 N.am    1  ZINC000800038938   -0.6000
     18 C18       -10.0271    0.3931   60.1358 C.2     1  ZINC000800038938    0.5800
     19 O19        -9.3506    0.5337   59.1357 O.2     1  ZINC000800038938   -0.4900
     20 C20        -9.6093    1.0235   61.4053 C.ar    1  ZINC000800038938   -0.1100
     21 C21        -9.1272    0.2374   62.4531 C.ar    1  ZINC000800038938   -0.0700
     22 C22        -8.7386    0.8328   63.6364 C.ar    1  ZINC000800038938   -0.0400
     23 Cl23       -8.1382   -0.1431   64.9406 Cl      1  ZINC000800038938   -0.0500
     24 C24        -8.8261    2.2069   63.7854 C.ar    1  ZINC000800038938   -0.0700
     25 C25        -9.3032    2.9918   62.7516 C.ar    1  ZINC000800038938   -0.1000
     26 C26        -9.6896    2.4099   61.5602 C.ar    1  ZINC000800038938    0.0100
     27 Cl27      -10.2882    3.3969   60.2635 Cl      1  ZINC000800038938   -0.0300
     28 C28        -9.8769   -1.5784   54.9243 C.3     1  ZINC000800038938   -0.1200
     29 H29        -9.9515    1.3212   51.4866 H       1  ZINC000800038938    0.0900
     30 H30       -10.8066   -0.2118   51.1914 H       1  ZINC000800038938    0.0400
     31 H31       -11.5163    1.0087   52.2754 H       1  ZINC000800038938    0.0400
     32 H32       -11.8937    0.5961   54.3953 H       1  ZINC000800038938    0.0800
     33 H33       -12.8006   -0.7014   53.5561 H       1  ZINC000800038938    0.0800
     34 H34       -12.8336   -0.6174   56.2508 H       1  ZINC000800038938    0.0800
     35 H35       -12.6104   -2.2004   55.4354 H       1  ZINC000800038938    0.0800
     36 H36       -13.7561   -1.6141   58.5221 H       1  ZINC000800038938    0.1000
     37 H37       -12.8405   -2.7518   59.5646 H       1  ZINC000800038938    0.0900
     38 H38       -13.9563    0.0172   60.2856 H       1  ZINC000800038938    0.0900
     39 H39       -14.0594   -1.5080   61.2278 H       1  ZINC000800038938    0.1000
     40 H40       -12.1440    0.2969   61.8513 H       1  ZINC000800038938    0.0900
     41 H41       -11.7262   -1.4433   61.8047 H       1  ZINC000800038938    0.0800
     42 H42        -9.0587   -0.8343   62.3385 H       1  ZINC000800038938    0.1500
     43 H43        -8.5207    2.6676   64.7133 H       1  ZINC000800038938    0.1500
     44 H44        -9.3692    4.0629   62.8745 H       1  ZINC000800038938    0.1500
     45 H45        -9.7016   -2.6498   54.8278 H       1  ZINC000800038938    0.0900
     46 H46        -8.9272   -1.0507   55.0128 H       1  ZINC000800038938    0.0900
@<TRIPOS>BOND
     1     1     2    1
     2     1    29    1
     3     1    30    1
     4     1    31    1
     5     2     3    1
     6     3     4    1
     7     3    28    1
     8     3     5    1
     9     5     6    1
    10     5    32    1
    11     5    33    1
    12     6     7    1
    13     6    34    1
    14     6    35    1
    15     7     8    1
    16     7     9    1
    17     7    28    1
    18     9    10    1
    19    10    11    2
    20    10    12    1
    21    12    13    1
    22    12    17    1
    23    12    14    1
    24    14    15    1
    25    14    36    1
    26    14    37    1
    27    15    16    1
    28    15    38    1
    29    15    39    1
    30    16    17    1
    31    16    40    1
    32    16    41    1
    33    17    18   am
    34    18    19    2
    35    18    20    1
    36    20    26   ar
    37    20    21   ar
    38    21    22   ar
    39    21    42    1
    40    22    23    1
    41    22    24   ar
    42    24    25   ar
    43    24    43    1
    44    25    26   ar
    45    25    44    1
    46    26    27    1
    47    28    45    1
    48    28    46    1
@<TRIPOS>SUBSTRUCTURE
     1 ZINC000800038938        1 TEMP              0 ****  ****    0 ROOT


##########                                Name:    ZINC000517001504
##########                DOCK_Rotatable_Bonds:                   5
##########                         Heavy_Atoms:                  29
##########                    Molecular_Weight:             403.401
##########                DOCK_Rotatable_Bonds:                   5
##########                       Formal_Charge:          -0.0200002
##########                     HBond_Acceptors:                   7
##########                        HBond_Donors:                   0
##########                         Heavy_Atoms:                  29
##########                          Grid_Score:          -26.268318
##########                     Grid_vdw_energy:          -26.336653
##########                      Grid_es_energy:            0.068334
##########           Internal_energy_repulsive:           31.691973

@<TRIPOS>MOLECULE
ZINC000517001504
 49 52 1 0 0
SMALL
USER_CHARGES


@<TRIPOS>ATOM
      1 O1        -10.9984    3.1814   61.0241 O.2     1  ZINC000517001504   -0.5200
      2 C2        -11.1260    2.0509   61.4444 C.2     1  ZINC000517001504    0.5400
      3 N3        -10.9618    1.0010   60.6152 N.am    1  ZINC000517001504   -0.6100
      4 C4        -11.1057   -0.3796   61.1035 C.3     1  ZINC000517001504    0.0600
      5 C5         -9.8729   -1.1783   60.6653 C.3     1  ZINC000517001504    0.0500
      6 O6         -9.6852   -1.0193   59.2570 O.3     1  ZINC000517001504   -0.3700
      7 C7         -9.4241    0.3260   58.8496 C.3     1  ZINC000517001504    0.1200
      8 H8         -8.5431    0.6999   59.3714 H       1  ZINC000517001504    0.0800
      9 C9         -9.1821    0.3636   57.3626 C.ar    1  ZINC000517001504   -0.0600
     10 C10        -8.2058    1.1922   56.8419 C.ar    1  ZINC000517001504   -0.0900
     11 C11        -7.9839    1.2267   55.4779 C.ar    1  ZINC000517001504   -0.0700
     12 C12        -8.7380    0.4322   54.6347 C.ar    1  ZINC000517001504   -0.1800
     13 C13        -8.4964    0.4701   53.1476 C.3     1  ZINC000517001504    0.5100
     14 F14        -9.5829    1.0832   52.5143 F       1  ZINC000517001504   -0.1800
     15 F15        -7.3311    1.1973   52.8829 F       1  ZINC000517001504   -0.1800
     16 F16        -8.3514   -0.8351   52.6653 F       1  ZINC000517001504   -0.1800
     17 C17        -9.7134   -0.3974   55.1555 C.ar    1  ZINC000517001504   -0.0700
     18 C18        -9.9326   -0.4348   56.5199 C.ar    1  ZINC000517001504   -0.1000
     19 C19       -10.6395    1.2019   59.1936 C.3     1  ZINC000517001504    0.0900
     20 C20       -11.4621    1.8198   62.8951 C.3     1  ZINC000517001504   -0.0600
     21 C21       -10.3231    1.2097   63.6706 C.ar    1  ZINC000517001504   -0.0700
     22 C22       -10.5237    0.7770   64.9681 C.ar    1  ZINC000517001504   -0.1200
     23 C23        -9.4789    0.2173   65.6794 C.ar    1  ZINC000517001504   -0.1100
     24 C24        -8.2335    0.0899   65.0931 C.ar    1  ZINC000517001504   -0.1100
     25 C25        -8.0332    0.5218   63.7953 C.ar    1  ZINC000517001504   -0.1100
     26 C26        -9.0790    1.0775   63.0826 C.ar    1  ZINC000517001504   -0.1000
     27 C27       -12.0966    3.0404   63.5838 C.3     1  ZINC000517001504   -0.1600
     28 C28       -13.4361    2.4856   63.1415 C.2     1  ZINC000517001504    0.3600
     29 O29       -14.5296    2.9439   62.9124 O.2     1  ZINC000517001504   -0.4100
     30 C30       -12.8079    1.1064   63.1110 C.3     1  ZINC000517001504   -0.1900
     31 H31       -11.1750   -0.3789   62.1914 H       1  ZINC000517001504    0.1000
     32 H32       -12.0037   -0.8277   60.6783 H       1  ZINC000517001504    0.0800
     33 H33        -8.9936   -0.8098   61.1936 H       1  ZINC000517001504    0.0600
     34 H34       -10.0216   -2.2332   60.8959 H       1  ZINC000517001504    0.1100
     35 H35        -7.6167    1.8129   57.5007 H       1  ZINC000517001504    0.1400
     36 H36        -7.2216    1.8746   55.0710 H       1  ZINC000517001504    0.1400
     37 H37       -10.3022   -1.0184   54.4967 H       1  ZINC000517001504    0.1400
     38 H38       -10.6947   -1.0830   56.9267 H       1  ZINC000517001504    0.1400
     39 H39       -11.4882    0.9115   58.5745 H       1  ZINC000517001504    0.0800
     40 H40       -10.3979    2.2501   59.0180 H       1  ZINC000517001504    0.1100
     41 H41       -11.4967    0.8766   65.4261 H       1  ZINC000517001504    0.1300
     42 H42        -9.6354   -0.1200   66.6934 H       1  ZINC000517001504    0.1300
     43 H43        -7.4171   -0.3467   65.6490 H       1  ZINC000517001504    0.1300
     44 H44        -7.0601    0.4225   63.3373 H       1  ZINC000517001504    0.1300
     45 H45        -8.9225    1.4149   62.0686 H       1  ZINC000517001504    0.1200
     46 H46       -11.9631    3.0510   64.6656 H       1  ZINC000517001504    0.1300
     47 H47       -11.8398    3.9901   63.1145 H       1  ZINC000517001504    0.1100
     48 H48       -13.1233    0.5007   62.2614 H       1  ZINC000517001504    0.1000
     49 H49       -12.8739    0.5745   64.0601 H       1  ZINC000517001504    0.1400
@<TRIPOS>BOND
     1     1     2    2
     2     2     3   am
     3     2    20    1
     4     3    19    1
     5     3     4    1
     6     4     5    1
     7     4    31    1
     8     4    32    1
     9     5     6    1
    10     5    33    1
    11     5    34    1
    12     6     7    1
    13     7     8    1
    14     7     9    1
    15     7    19    1
    16     9    18   ar
    17     9    10   ar
    18    10    11   ar
    19    10    35    1
    20    11    12   ar
    21    11    36    1
    22    12    13    1
    23    12    17   ar
    24    13    14    1
    25    13    15    1
    26    13    16    1
    27    17    18   ar
    28    17    37    1
    29    18    38    1
    30    19    39    1
    31    19    40    1
    32    20    30    1
    33    20    21    1
    34    20    27    1
    35    21    26   ar
    36    21    22   ar
    37    22    23   ar
    38    22    41    1
    39    23    24   ar
    40    23    42    1
    41    24    25   ar
    42    24    43    1
    43    25    26   ar
    44    25    44    1
    45    26    45    1
    46    27    28    1
    47    27    46    1
    48    27    47    1
    49    28    29    2
    50    28    30    1
    51    30    48    1
    52    30    49    1
@<TRIPOS>SUBSTRUCTURE
     1 ZINC000517001504        1 TEMP              0 ****  ****    0 ROOT


##########                                Name:    ZINC000518937710
##########                DOCK_Rotatable_Bonds:                   6
##########                         Heavy_Atoms:                  25
##########                    Molecular_Weight:             397.421
##########                DOCK_Rotatable_Bonds:                   6
##########                       Formal_Charge:          -0.0199997
##########                     HBond_Acceptors:                  11
##########                        HBond_Donors:                   0
##########                         Heavy_Atoms:                  25
##########                          Grid_Score:          -26.247913
##########                     Grid_vdw_energy:          -22.535410
##########                      Grid_es_energy:           -3.712503
##########           Internal_energy_repulsive:           18.217340

@<TRIPOS>MOLECULE
ZINC000518937710
 42 44 1 0 0
SMALL
USER_CHARGES


@<TRIPOS>ATOM
      1 C1        -14.6728   -0.3683   56.8270 C.3     1  ZINC000518937710   -0.1900
      2 C2        -13.8922   -0.9614   58.0016 C.3     1  ZINC000518937710    0.1700
      3 H3        -13.1604   -0.2352   58.3553 H       1  ZINC000518937710    0.1100
      4 C4        -14.8601   -1.3042   59.1359 C.3     1  ZINC000518937710   -0.6600
      5 S5        -14.9304    0.0776   60.3091 S.o2    1  ZINC000518937710    2.4000
      6 C6        -13.3479   -0.0892   61.1799 C.3     1  ZINC000518937710   -0.6600
      7 O7        -14.9178    1.2949   59.5762 O.2     1  ZINC000518937710   -0.9200
      8 O8        -15.9830   -0.1655   61.2324 O.2     1  ZINC000518937710   -0.9300
      9 N9        -13.2015   -2.1773   57.5649 N.am    1  ZINC000518937710   -0.9600
     10 C10       -13.7753   -3.0032   56.4996 C.3     1  ZINC000518937710    0.0800
     11 C11       -13.8665   -4.5105   56.7457 C.3     1  ZINC000518937710   -0.1800
     12 C12       -15.1343   -3.6541   56.7646 C.3     1  ZINC000518937710   -0.1800
     13 S13       -11.7723   -2.6184   58.2756 S.o2    1  ZINC000518937710    2.6900
     14 O14       -12.0147   -2.6553   59.6753 O.2     1  ZINC000518937710   -0.9400
     15 O15       -11.2864   -3.7337   57.5414 O.2     1  ZINC000518937710   -0.9400
     16 C16       -10.6278   -1.3065   58.0032 C.ar    1  ZINC000518937710   -0.6400
     17 C17       -10.0105   -0.6940   59.0778 C.ar    1  ZINC000518937710   -0.0300
     18 C18        -9.1120    0.3356   58.8679 C.ar    1  ZINC000518937710   -0.1300
     19 C19        -8.8266    0.7564   57.5825 C.ar    1  ZINC000518937710   -0.0300
     20 C20        -9.4415    0.1471   56.5008 C.ar    1  ZINC000518937710    0.0200
     21 C21       -10.3427   -0.8934   56.7119 C.ar    1  ZINC000518937710    0.1900
     22 O22       -10.8069   -1.3210   55.5015 O.3     1  ZINC000518937710   -0.2800
     23 C23       -10.4935   -0.2645   54.5747 C.3     1  ZINC000518937710    0.5700
     24 F24       -10.1805   -0.7909   53.3169 F       1  ZINC000518937710   -0.1200
     25 F25       -11.5593    0.6365   54.4776 F       1  ZINC000518937710   -0.1400
     26 O26        -9.3375    0.3685   55.1578 O.3     1  ZINC000518937710   -0.2900
     27 H27       -15.3792   -1.1077   56.4498 H       1  ZINC000518937710    0.1000
     28 H28       -15.2158    0.5158   57.1610 H       1  ZINC000518937710    0.0800
     29 H29       -13.9793   -0.0904   56.0333 H       1  ZINC000518937710    0.0700
     30 H30       -15.8536   -1.4823   58.7245 H       1  ZINC000518937710    0.1600
     31 H31       -14.5139   -2.2005   59.6506 H       1  ZINC000518937710    0.1400
     32 H32       -12.5290    0.0842   60.4818 H       1  ZINC000518937710    0.1300
     33 H33       -13.2984    0.6420   61.9868 H       1  ZINC000518937710    0.1300
     34 H34       -13.2654   -1.0939   61.5945 H       1  ZINC000518937710    0.1300
     35 H35       -13.5663   -2.6707   55.4827 H       1  ZINC000518937710    0.1500
     36 H36       -13.7174   -5.1700   55.8907 H       1  ZINC000518937710    0.1100
     37 H37       -13.4997   -4.8876   57.7003 H       1  ZINC000518937710    0.1000
     38 H38       -15.6015   -3.4679   57.7316 H       1  ZINC000518937710    0.1000
     39 H39       -15.8192   -3.7503   55.9221 H       1  ZINC000518937710    0.1000
     40 H40       -10.2310   -1.0201   60.0835 H       1  ZINC000518937710    0.1600
     41 H41        -8.6324    0.8122   59.7099 H       1  ZINC000518937710    0.1600
     42 H42        -8.1242    1.5609   57.4215 H       1  ZINC000518937710    0.1500
@<TRIPOS>BOND
     1     1     2    1
     2     1    27    1
     3     1    28    1
     4     1    29    1
     5     2     3    1
     6     2     4    1
     7     2     9    1
     8     4     5    1
     9     4    30    1
    10     4    31    1
    11     5     6    1
    12     5     7    2
    13     5     8    2
    14     6    32    1
    15     6    33    1
    16     6    34    1
    17     9    10    1
    18     9    13   am
    19    10    12    1
    20    10    11    1
    21    10    35    1
    22    11    12    1
    23    11    36    1
    24    11    37    1
    25    12    38    1
    26    12    39    1
    27    13    14    2
    28    13    15    2
    29    13    16    1
    30    16    21   ar
    31    16    17   ar
    32    17    18   ar
    33    17    40    1
    34    18    19   ar
    35    18    41    1
    36    19    20   ar
    37    19    42    1
    38    20    26    1
    39    20    21   ar
    40    21    22    1
    41    22    23    1
    42    23    24    1
    43    23    25    1
    44    23    26    1
@<TRIPOS>SUBSTRUCTURE
     1 ZINC000518937710        1 TEMP              0 ****  ****    0 ROOT


##########                                Name:    ZINC000435292384
##########                DOCK_Rotatable_Bonds:                   6
##########                         Heavy_Atoms:                  22
##########                    Molecular_Weight:             326.503
##########                DOCK_Rotatable_Bonds:                   6
##########                       Formal_Charge:         -0.00999993
##########                     HBond_Acceptors:                   5
##########                        HBond_Donors:                   0
##########                         Heavy_Atoms:                  22
##########                          Grid_Score:          -26.243195
##########                     Grid_vdw_energy:          -25.916426
##########                      Grid_es_energy:           -0.326768
##########           Internal_energy_repulsive:           21.861904

@<TRIPOS>MOLECULE
ZINC000435292384
 52 53 1 0 0
SMALL
USER_CHARGES


@<TRIPOS>ATOM
      1 C1         -8.4431   -0.1140   52.9215 C.3     1  ZINC000435292384   -0.1500
      2 C2         -9.5539   -1.0127   53.4684 C.3     1  ZINC000435292384   -0.1200
      3 C3         -9.8926   -0.5914   54.8997 C.3     1  ZINC000435292384   -0.1400
      4 C4        -10.9822   -1.5095   55.4574 C.3     1  ZINC000435292384    0.1600
      5 H5        -10.8790   -2.5027   55.0204 H       1  ZINC000435292384    0.0900
      6 C6        -12.3580   -0.9389   55.1077 C.3     1  ZINC000435292384   -0.1700
      7 N7        -10.8466   -1.5999   56.9133 N.am    1  ZINC000435292384   -0.6100
      8 C8        -10.1915   -0.5862   57.7484 C.3     1  ZINC000435292384    0.1200
      9 C9        -10.6629   -0.8737   59.1912 C.3     1  ZINC000435292384   -0.1300
     10 H10       -11.5477   -0.2865   59.4367 H       1  ZINC000435292384    0.1100
     11 C11        -9.5564   -0.6163   60.1814 C.2     1  ZINC000435292384    0.5200
     12 O12        -8.3981   -0.7051   59.8330 O.2     1  ZINC000435292384   -0.5200
     13 N13        -9.8540   -0.2877   61.4541 N.am    1  ZINC000435292384   -0.6000
     14 C14        -8.7468   -0.0420   62.3989 C.3     1  ZINC000435292384    0.1000
     15 C15        -9.0119    1.1786   63.2987 C.3     1  ZINC000435292384   -0.1300
     16 C16        -9.6401    2.2895   62.4936 C.3     1  ZINC000435292384   -0.1100
     17 C17       -11.1593    2.1754   62.5741 C.3     1  ZINC000435292384   -0.1200
     18 C18       -11.7506    1.2530   61.5927 C.3     1  ZINC000435292384   -0.0700
     19 H19       -11.4706    1.5679   60.5874 H       1  ZINC000435292384    0.0900
     20 S20       -13.5575    1.2860   61.7505 S.3     1  ZINC000435292384   -0.2500
     21 C21       -14.1056    0.2228   60.3868 C.3     1  ZINC000435292384   -0.1200
     22 C22       -11.2446   -0.1846   61.8362 C.3     1  ZINC000435292384    0.1400
     23 C23       -11.0016   -2.3806   59.1180 C.3     1  ZINC000435292384   -0.1400
     24 C24       -11.3111   -2.6191   57.6564 C.2     1  ZINC000435292384    0.5200
     25 O25       -11.8880   -3.5917   57.2183 O.2     1  ZINC000435292384   -0.5200
     26 H26        -8.2017   -0.4142   51.9018 H       1  ZINC000435292384    0.0500
     27 H27        -8.7796    0.9227   52.9250 H       1  ZINC000435292384    0.0500
     28 H28        -7.5562   -0.2103   53.5480 H       1  ZINC000435292384    0.0500
     29 H29       -10.4407   -0.9165   52.8419 H       1  ZINC000435292384    0.0600
     30 H30        -9.2173   -2.0495   53.4649 H       1  ZINC000435292384    0.0600
     31 H31        -9.0005   -0.6670   55.5215 H       1  ZINC000435292384    0.0800
     32 H32       -10.2497    0.4384   54.9005 H       1  ZINC000435292384    0.0800
     33 H33       -12.4611    0.0544   55.5447 H       1  ZINC000435292384    0.0700
     34 H34       -12.4589   -0.8715   54.0245 H       1  ZINC000435292384    0.0700
     35 H35       -13.1342   -1.5929   55.5050 H       1  ZINC000435292384    0.0600
     36 H36        -9.1080   -0.6833   57.6792 H       1  ZINC000435292384    0.0900
     37 H37       -10.5018    0.4127   57.4422 H       1  ZINC000435292384    0.0800
     38 H38        -8.6157   -0.9230   63.0272 H       1  ZINC000435292384    0.0700
     39 H39        -7.8303    0.1272   61.8338 H       1  ZINC000435292384    0.0900
     40 H40        -9.6851    0.8927   64.1069 H       1  ZINC000435292384    0.0700
     41 H41        -8.0697    1.5272   63.7218 H       1  ZINC000435292384    0.0800
     42 H42        -9.3258    3.2526   62.8957 H       1  ZINC000435292384    0.0700
     43 H43        -9.3239    2.2085   61.4536 H       1  ZINC000435292384    0.0600
     44 H44       -11.4284    1.8355   63.5743 H       1  ZINC000435292384    0.0800
     45 H45       -11.5893    3.1653   62.4215 H       1  ZINC000435292384    0.0600
     46 H46       -13.7602    0.6386   59.4404 H       1  ZINC000435292384    0.0800
     47 H47       -13.6920   -0.7773   60.5169 H       1  ZINC000435292384    0.0800
     48 H48       -15.1943    0.1680   60.3838 H       1  ZINC000435292384    0.1000
     49 H49       -11.8345   -0.8826   61.2423 H       1  ZINC000435292384    0.0900
     50 H50       -11.3469   -0.4313   62.8930 H       1  ZINC000435292384    0.0900
     51 H51       -10.1472   -2.9795   59.4335 H       1  ZINC000435292384    0.1100
     52 H52       -11.8739   -2.6059   59.7314 H       1  ZINC000435292384    0.1100
@<TRIPOS>BOND
     1     1     2    1
     2     1    26    1
     3     1    27    1
     4     1    28    1
     5     2     3    1
     6     2    29    1
     7     2    30    1
     8     3     4    1
     9     3    31    1
    10     3    32    1
    11     4     5    1
    12     4     6    1
    13     4     7    1
    14     6    33    1
    15     6    34    1
    16     6    35    1
    17     7    24   am
    18     7     8    1
    19     8     9    1
    20     8    36    1
    21     8    37    1
    22     9    10    1
    23     9    11    1
    24     9    23    1
    25    11    12    2
    26    11    13   am
    27    13    22    1
    28    13    14    1
    29    14    15    1
    30    14    38    1
    31    14    39    1
    32    15    16    1
    33    15    40    1
    34    15    41    1
    35    16    17    1
    36    16    42    1
    37    16    43    1
    38    17    18    1
    39    17    44    1
    40    17    45    1
    41    18    19    1
    42    18    20    1
    43    18    22    1
    44    20    21    1
    45    21    46    1
    46    21    47    1
    47    21    48    1
    48    22    49    1
    49    22    50    1
    50    23    24    1
    51    23    51    1
    52    23    52    1
    53    24    25    2
@<TRIPOS>SUBSTRUCTURE
     1 ZINC000435292384        1 TEMP              0 ****  ****    0 ROOT


##########                                Name:    ZINC001098311495
##########                DOCK_Rotatable_Bonds:                   8
##########                         Heavy_Atoms:                  24
##########                    Molecular_Weight:             328.454
##########                DOCK_Rotatable_Bonds:                   8
##########                       Formal_Charge:          0.00999987
##########                     HBond_Acceptors:                   4
##########                        HBond_Donors:                   1
##########                         Heavy_Atoms:                  24
##########                          Grid_Score:          -26.239275
##########                     Grid_vdw_energy:          -25.881083
##########                      Grid_es_energy:           -0.358192
##########           Internal_energy_repulsive:           25.415382

@<TRIPOS>MOLECULE
ZINC001098311495
 52 54 1 0 0
SMALL
USER_CHARGES


@<TRIPOS>ATOM
      1 C1         -7.9912    0.3461   53.9881 C.3     1  ZINC001098311495   -0.1500
      2 C2         -8.3657   -0.7271   52.9640 C.3     1  ZINC001098311495    0.0500
      3 O3         -9.4609   -1.4986   53.4613 O.3     1  ZINC001098311495   -0.2800
      4 C4        -10.6811   -0.9058   53.4631 C.ar    1  ZINC001098311495    0.1900
      5 C5        -11.2515   -0.4823   52.2722 C.ar    1  ZINC001098311495   -0.2200
      6 C6        -12.4909    0.1268   52.2763 C.ar    1  ZINC001098311495   -0.0500
      7 C7        -13.1759    0.3134   53.4656 C.ar    1  ZINC001098311495   -0.1700
      8 C8        -12.6267   -0.1069   54.6579 C.ar    1  ZINC001098311495   -0.0500
      9 C9        -11.3738   -0.7240   54.6681 C.ar    1  ZINC001098311495   -0.1800
     10 C10       -10.7799   -1.1764   55.9407 C.2     1  ZINC001098311495    0.5600
     11 O11        -9.9533   -2.0682   55.9429 O.2     1  ZINC001098311495   -0.5200
     12 N12       -11.1538   -0.6014   57.1009 N.am    1  ZINC001098311495   -0.7200
     13 C13       -10.5629   -1.0494   58.3643 C.3     1  ZINC001098311495    0.1600
     14 H14       -10.3460   -2.1169   58.3279 H       1  ZINC001098311495    0.1000
     15 C15       -11.5008   -0.7204   59.5516 C.3     1  ZINC001098311495   -0.1200
     16 C16       -10.6507    0.2461   60.4304 C.3     1  ZINC001098311495    0.0500
     17 H17       -11.2152    0.8783   61.1158 H       1  ZINC001098311495    0.1100
     18 C18        -9.5475   -0.6389   61.0851 C.3     1  ZINC001098311495   -0.1500
     19 C19        -8.5998   -0.9675   59.9057 C.3     1  ZINC001098311495   -0.1500
     20 C20        -9.2715   -0.2377   58.6844 C.3     1  ZINC001098311495    0.0400
     21 H21        -8.6128   -0.0308   57.8409 H       1  ZINC001098311495    0.1200
     22 N22        -9.8529    0.9679   59.3759 N.3     1  ZINC001098311495   -0.4900
     23 C23        -8.7958    1.7867   59.9841 C.3     1  ZINC001098311495    0.0600
     24 C24        -9.0816    3.2446   59.7314 C.2     1  ZINC001098311495   -0.1600
     25 C25        -8.6443    3.8178   58.6376 C.2     1  ZINC001098311495   -0.1200
     26 C26        -7.8555    3.0193   57.6320 C.3     1  ZINC001098311495   -0.1200
     27 C27        -8.9301    5.2757   58.3849 C.3     1  ZINC001098311495   -0.1200
     28 H28        -8.8471    0.9988   54.1599 H       1  ZINC001098311495    0.0700
     29 H29        -7.7039   -0.1305   54.9254 H       1  ZINC001098311495    0.0700
     30 H30        -7.1558    0.9346   53.6088 H       1  ZINC001098311495    0.0800
     31 H31        -7.5098   -1.3798   52.7922 H       1  ZINC001098311495    0.0600
     32 H32        -8.6530   -0.2504   52.0267 H       1  ZINC001098311495    0.0600
     33 H33       -10.7237   -0.6247   51.3408 H       1  ZINC001098311495    0.1300
     34 H34       -12.9288    0.4592   51.3468 H       1  ZINC001098311495    0.1300
     35 H35       -14.1449    0.7902   53.4587 H       1  ZINC001098311495    0.1300
     36 H36       -13.1642    0.0409   55.5828 H       1  ZINC001098311495    0.1300
     37 H37       -11.8142    0.1092   57.0993 H       1  ZINC001098311495    0.4000
     38 H38       -11.7493   -1.6251   60.1065 H       1  ZINC001098311495    0.0800
     39 H39       -12.4052   -0.2240   59.2001 H       1  ZINC001098311495    0.0800
     40 H40        -9.0185   -0.0827   61.8591 H       1  ZINC001098311495    0.0700
     41 H41        -9.9807   -1.5514   61.4951 H       1  ZINC001098311495    0.0800
     42 H42        -7.6010   -0.5741   60.0950 H       1  ZINC001098311495    0.0700
     43 H43        -8.5631   -2.0427   59.7309 H       1  ZINC001098311495    0.0800
     44 H44        -7.8339    1.5235   59.5440 H       1  ZINC001098311495    0.0500
     45 H45        -8.7664    1.6029   61.0581 H       1  ZINC001098311495    0.0800
     46 H46        -9.6470    3.8169   60.4520 H       1  ZINC001098311495    0.1100
     47 H47        -6.7939    3.0811   57.8712 H       1  ZINC001098311495    0.0700
     48 H48        -8.0271    3.4215   56.6335 H       1  ZINC001098311495    0.0600
     49 H49        -8.1751    1.9777   57.6640 H       1  ZINC001098311495    0.0600
     50 H50        -9.9116    5.3786   57.9220 H       1  ZINC001098311495    0.0700
     51 H51        -8.9156    5.8180   59.3302 H       1  ZINC001098311495    0.0600
     52 H52        -8.1699    5.6850   57.7195 H       1  ZINC001098311495    0.0600
@<TRIPOS>BOND
     1     1     2    1
     2     1    28    1
     3     1    29    1
     4     1    30    1
     5     2     3    1
     6     2    31    1
     7     2    32    1
     8     3     4    1
     9     4     9   ar
    10     4     5   ar
    11     5     6   ar
    12     5    33    1
    13     6     7   ar
    14     6    34    1
    15     7     8   ar
    16     7    35    1
    17     8     9   ar
    18     8    36    1
    19     9    10    1
    20    10    11    2
    21    10    12   am
    22    12    13    1
    23    12    37    1
    24    13    14    1
    25    13    20    1
    26    13    15    1
    27    15    16    1
    28    15    38    1
    29    15    39    1
    30    16    17    1
    31    16    22    1
    32    16    18    1
    33    18    19    1
    34    18    40    1
    35    18    41    1
    36    19    20    1
    37    19    42    1
    38    19    43    1
    39    20    21    1
    40    20    22    1
    41    22    23    1
    42    23    24    1
    43    23    44    1
    44    23    45    1
    45    24    25    2
    46    24    46    1
    47    25    26    1
    48    25    27    1
    49    26    47    1
    50    26    48    1
    51    26    49    1
    52    27    50    1
    53    27    51    1
    54    27    52    1
@<TRIPOS>SUBSTRUCTURE
     1 ZINC001098311495        1 TEMP              0 ****  ****    0 ROOT


##########                                Name:    ZINC000543020509
##########                DOCK_Rotatable_Bonds:                   5
##########                         Heavy_Atoms:                  26
##########                    Molecular_Weight:              366.81
##########                DOCK_Rotatable_Bonds:                   5
##########                       Formal_Charge:               -0.02
##########                     HBond_Acceptors:                   8
##########                        HBond_Donors:                   1
##########                         Heavy_Atoms:                  26
##########                          Grid_Score:          -26.225292
##########                     Grid_vdw_energy:          -26.554720
##########                      Grid_es_energy:            0.329428
##########           Internal_energy_repulsive:            6.002294

@<TRIPOS>MOLECULE
ZINC000543020509
 41 43 1 0 0
SMALL
USER_CHARGES


@<TRIPOS>ATOM
      1 C1        -12.6093   -2.4543   60.1112 C.3     1  ZINC000543020509    0.0800
      2 N2        -11.3592   -2.3079   59.3614 N.pl3   1  ZINC000543020509   -0.6200
      3 C3        -11.1095   -3.1426   58.1837 C.3     1  ZINC000543020509    0.0900
      4 C4        -10.4089   -1.3757   59.7680 C.ar    1  ZINC000543020509    0.2500
      5 C5        -10.0083   -1.2987   61.1008 C.ar    1  ZINC000543020509   -0.2200
      6 C6         -9.0616   -0.3606   61.4690 C.ar    1  ZINC000543020509    0.1400
      7 N7         -8.5361    0.4567   60.5810 N.ar    1  ZINC000543020509   -0.5000
      8 C8         -8.8875    0.4194   59.3001 C.ar    1  ZINC000543020509    0.1100
      9 C9         -8.2655    1.3614   58.3410 C.2     1  ZINC000543020509    0.5900
     10 O10        -7.2681    1.9799   58.6568 O.2     1  ZINC000543020509   -0.5000
     11 N11        -8.8055    1.5328   57.1181 N.am    1  ZINC000543020509   -0.6200
     12 C12        -8.2168    2.4215   56.2113 C.2     1  ZINC000543020509    0.3200
     13 N13        -7.0042    2.3270   55.7181 N.2     1  ZINC000543020509   -0.3100
     14 N14        -6.7988    3.4075   54.8505 N.pl3   1  ZINC000543020509   -0.3300
     15 C15        -5.6342    3.6688   54.1245 C.ar    1  ZINC000543020509    0.2200
     16 C16        -4.4775    4.0617   54.7812 C.ar    1  ZINC000543020509   -0.1300
     17 C17        -3.3265    4.3197   54.0622 C.ar    1  ZINC000543020509   -0.0500
     18 C18        -3.3176    4.1888   52.6827 C.ar    1  ZINC000543020509   -0.0600
     19 Cl19       -1.8634    4.5166   51.7929 Cl      1  ZINC000543020509   -0.0500
     20 C20        -4.4595    3.7984   52.0132 C.ar    1  ZINC000543020509   -0.0400
     21 C21        -5.6281    3.5293   52.7285 C.ar    1  ZINC000543020509   -0.0200
     22 C22        -6.8165    3.1239   52.0401 C.1     1  ZINC000543020509    0.2500
     23 N23        -7.7593    2.8022   51.4940 N.1     1  ZINC000543020509   -0.3800
     24 C24        -7.9326    4.1562   54.8396 C.2     1  ZINC000543020509    0.0700
     25 C25        -8.8241    3.5660   55.6670 C.2     1  ZINC000543020509   -0.2400
     26 C26        -9.8293   -0.4991   58.8508 C.ar    1  ZINC000543020509   -0.1800
     27 H27       -12.4779   -3.2009   60.8944 H       1  ZINC000543020509    0.0600
     28 H28       -12.8768   -1.4984   60.5618 H       1  ZINC000543020509    0.0700
     29 H29       -13.4032   -2.7722   59.4355 H       1  ZINC000543020509    0.0700
     30 H30       -11.9589   -3.8063   58.0220 H       1  ZINC000543020509    0.0800
     31 H31       -10.9741   -2.5061   57.3093 H       1  ZINC000543020509    0.0600
     32 H32       -10.2096   -3.7366   58.3435 H       1  ZINC000543020509    0.0600
     33 H33       -10.4330   -1.9641   61.8379 H       1  ZINC000543020509    0.1400
     34 H34        -8.7487   -0.2975   62.5007 H       1  ZINC000543020509    0.1700
     35 H35        -9.6022    1.0400   56.8664 H       1  ZINC000543020509    0.4300
     36 H36        -4.4767    4.1663   55.8561 H       1  ZINC000543020509    0.1500
     37 H37        -2.4285    4.6257   54.5783 H       1  ZINC000543020509    0.1500
     38 H38        -4.4482    3.6976   50.9380 H       1  ZINC000543020509    0.1500
     39 H39        -8.0942    5.0589   54.2690 H       1  ZINC000543020509    0.1900
     40 H40        -9.8239    3.9158   55.8775 H       1  ZINC000543020509    0.1800
     41 H41       -10.1135   -0.5283   57.8092 H       1  ZINC000543020509    0.1500
@<TRIPOS>BOND
     1     1     2    1
     2     1    27    1
     3     1    28    1
     4     1    29    1
     5     2     3    1
     6     2     4    1
     7     3    30    1
     8     3    31    1
     9     3    32    1
    10     4    26   ar
    11     4     5   ar
    12     5     6   ar
    13     5    33    1
    14     6     7   ar
    15     6    34    1
    16     7     8   ar
    17     8     9    1
    18     8    26   ar
    19     9    10    2
    20     9    11   am
    21    11    12    1
    22    11    35    1
    23    12    25    1
    24    12    13    2
    25    13    14    1
    26    14    15    1
    27    14    24    1
    28    15    21   ar
    29    15    16   ar
    30    16    17   ar
    31    16    36    1
    32    17    18   ar
    33    17    37    1
    34    18    19    1
    35    18    20   ar
    36    20    21   ar
    37    20    38    1
    38    21    22    1
    39    22    23    3
    40    24    25    2
    41    24    39    1
    42    25    40    1
    43    26    41    1
@<TRIPOS>SUBSTRUCTURE
     1 ZINC000543020509        1 TEMP              0 ****  ****    0 ROOT


##########                                Name:    ZINC000467104849
##########                DOCK_Rotatable_Bonds:                   6
##########                         Heavy_Atoms:                  29
##########                    Molecular_Weight:             421.896
##########                DOCK_Rotatable_Bonds:                   6
##########                       Formal_Charge:           0.0200002
##########                     HBond_Acceptors:                   7
##########                        HBond_Donors:                   0
##########                         Heavy_Atoms:                  29
##########                          Grid_Score:          -26.218658
##########                     Grid_vdw_energy:          -25.400129
##########                      Grid_es_energy:           -0.818529
##########           Internal_energy_repulsive:           69.945381

@<TRIPOS>MOLECULE
ZINC000467104849
 54 56 1 0 0
SMALL
USER_CHARGES


@<TRIPOS>ATOM
      1 C1         -7.6448    0.1132   65.3868 C.3     1  ZINC000467104849    0.0200
      2 O2         -8.4494   -0.3369   64.2948 O.3     1  ZINC000467104849   -0.3000
      3 C3         -9.0603    0.6180   63.5435 C.ar    1  ZINC000467104849    0.1000
      4 C4         -8.8179    1.9587   63.7936 C.ar    1  ZINC000467104849   -0.1700
      5 C5         -9.4395    2.9283   63.0285 C.ar    1  ZINC000467104849   -0.1200
      6 C6        -10.3039    2.5632   62.0137 C.ar    1  ZINC000467104849   -0.0800
      7 C7        -10.9792    3.6240   61.1832 C.3     1  ZINC000467104849   -0.0400
      8 C8        -12.2777    4.0571   61.8668 C.3     1  ZINC000467104849   -0.1300
      9 C9        -10.0494    4.8309   61.0432 C.3     1  ZINC000467104849   -0.1600
     10 C10       -11.2915    3.0693   59.8173 C.2     1  ZINC000467104849    0.5300
     11 O11       -12.4315    3.0820   59.4036 O.2     1  ZINC000467104849   -0.5300
     12 N12       -10.3038    2.5590   59.0552 N.am    1  ZINC000467104849   -0.6100
     13 C13        -8.9132    2.5327   59.5356 C.3     1  ZINC000467104849    0.0600
     14 C14        -8.3659    1.1123   59.3545 C.3     1  ZINC000467104849    0.0500
     15 O15        -8.5792    0.6942   58.0041 O.3     1  ZINC000467104849   -0.3700
     16 C16        -9.9557    0.6161   57.6260 C.3     1  ZINC000467104849    0.1300
     17 H17       -10.4796   -0.0645   58.2972 H       1  ZINC000467104849    0.0800
     18 C18       -10.0611    0.1082   56.2112 C.ar    1  ZINC000467104849   -0.0900
     19 C19       -11.1779   -0.6028   55.8143 C.ar    1  ZINC000467104849   -0.0500
     20 C20       -11.2764   -1.0696   54.5168 C.ar    1  ZINC000467104849   -0.1400
     21 C21       -10.2563   -0.8244   53.6142 C.ar    1  ZINC000467104849    0.1200
     22 F22       -10.3517   -1.2797   52.3458 F       1  ZINC000467104849   -0.1200
     23 C23        -9.1369   -0.1110   54.0126 C.ar    1  ZINC000467104849   -0.0800
     24 Cl24       -7.8559    0.1978   52.8823 Cl      1  ZINC000467104849   -0.0400
     25 C25        -9.0432    0.3588   55.3098 C.ar    1  ZINC000467104849   -0.0700
     26 C26       -10.5852    2.0061   57.7209 C.3     1  ZINC000467104849    0.0900
     27 C27       -10.5500    1.2265   61.7583 C.ar    1  ZINC000467104849   -0.1600
     28 C28        -9.9263    0.2501   62.5177 C.ar    1  ZINC000467104849    0.1100
     29 O29       -10.1673   -1.0648   62.2679 O.3     1  ZINC000467104849   -0.3000
     30 C30       -11.1255   -1.3672   61.2518 C.3     1  ZINC000467104849    0.0200
     31 H31        -7.2169   -0.7471   65.9014 H       1  ZINC000467104849    0.1000
     32 H32        -6.8424    0.7472   65.0097 H       1  ZINC000467104849    0.0600
     33 H33        -8.2616    0.6827   66.0820 H       1  ZINC000467104849    0.0600
     34 H34        -8.1435    2.2467   64.5866 H       1  ZINC000467104849    0.1400
     35 H35        -9.2497    3.9732   63.2245 H       1  ZINC000467104849    0.1300
     36 H36       -12.0451    4.5387   62.8166 H       1  ZINC000467104849    0.0700
     37 H37       -12.8101    4.7586   61.2244 H       1  ZINC000467104849    0.0700
     38 H38       -12.9030    3.1825   62.0464 H       1  ZINC000467104849    0.0700
     39 H39        -9.1631    4.5431   60.4778 H       1  ZINC000467104849    0.0700
     40 H40       -10.5704    5.6321   60.5191 H       1  ZINC000467104849    0.0700
     41 H41        -9.7523    5.1773   62.0331 H       1  ZINC000467104849    0.0700
     42 H42        -8.3117    3.2342   58.9574 H       1  ZINC000467104849    0.0800
     43 H43        -8.8839    2.8057   60.5904 H       1  ZINC000467104849    0.1100
     44 H44        -7.2984    1.1027   59.5743 H       1  ZINC000467104849    0.1100
     45 H45        -8.8840    0.4334   60.0319 H       1  ZINC000467104849    0.0600
     46 H46       -11.9741   -0.7943   56.5184 H       1  ZINC000467104849    0.1500
     47 H47       -12.1491   -1.6257   54.2076 H       1  ZINC000467104849    0.1500
     48 H48        -8.1714    0.9151   55.6209 H       1  ZINC000467104849    0.1500
     49 H49       -11.6626    1.9320   57.5723 H       1  ZINC000467104849    0.1100
     50 H50       -10.1533    2.6574   56.9612 H       1  ZINC000467104849    0.0800
     51 H51       -11.2257    0.9439   60.9647 H       1  ZINC000467104849    0.1400
     52 H52       -12.0904   -0.9390   61.5234 H       1  ZINC000467104849    0.0600
     53 H53       -10.7946   -0.9447   60.3030 H       1  ZINC000467104849    0.0600
     54 H54       -11.2223   -2.4485   61.1539 H       1  ZINC000467104849    0.1000
@<TRIPOS>BOND
     1     1     2    1
     2     1    31    1
     3     1    32    1
     4     1    33    1
     5     2     3    1
     6     3    28   ar
     7     3     4   ar
     8     4     5   ar
     9     4    34    1
    10     5     6   ar
    11     5    35    1
    12     6     7    1
    13     6    27   ar
    14     7     8    1
    15     7     9    1
    16     7    10    1
    17     8    36    1
    18     8    37    1
    19     8    38    1
    20     9    39    1
    21     9    40    1
    22     9    41    1
    23    10    11    2
    24    10    12   am
    25    12    26    1
    26    12    13    1
    27    13    14    1
    28    13    42    1
    29    13    43    1
    30    14    15    1
    31    14    44    1
    32    14    45    1
    33    15    16    1
    34    16    17    1
    35    16    18    1
    36    16    26    1
    37    18    25   ar
    38    18    19   ar
    39    19    20   ar
    40    19    46    1
    41    20    21   ar
    42    20    47    1
    43    21    22    1
    44    21    23   ar
    45    23    24    1
    46    23    25   ar
    47    25    48    1
    48    26    49    1
    49    26    50    1
    50    27    28   ar
    51    27    51    1
    52    28    29    1
    53    29    30    1
    54    30    52    1
    55    30    53    1
    56    30    54    1
@<TRIPOS>SUBSTRUCTURE
     1 ZINC000467104849        1 TEMP              0 ****  ****    0 ROOT


##########                                Name:    ZINC001018118384
##########                DOCK_Rotatable_Bonds:                   5
##########                         Heavy_Atoms:                  25
##########                    Molecular_Weight:             347.374
##########                DOCK_Rotatable_Bonds:                   5
##########                       Formal_Charge:           0.0299997
##########                     HBond_Acceptors:                   9
##########                        HBond_Donors:                   2
##########                         Heavy_Atoms:                  25
##########                          Grid_Score:          -26.166792
##########                     Grid_vdw_energy:          -25.124538
##########                      Grid_es_energy:           -1.042253
##########           Internal_energy_repulsive:           97.033112

@<TRIPOS>MOLECULE
ZINC001018118384
 46 48 1 0 0
SMALL
USER_CHARGES


@<TRIPOS>ATOM
      1 C1         -7.0178    1.0101   54.4563 C.3     1  ZINC001018118384   -0.0700
      2 C2         -8.2548    0.1980   54.1710 C.2     1  ZINC001018118384    0.2200
      3 N3         -9.3615    0.2408   54.8549 N.2     1  ZINC001018118384   -0.4600
      4 C4        -10.2509   -0.6252   54.3053 C.2     1  ZINC001018118384   -0.0700
      5 C5        -11.6232   -0.8802   54.7767 C.2     1  ZINC001018118384    0.6100
      6 O6        -12.5499   -0.2309   54.3306 O.2     1  ZINC001018118384   -0.5400
      7 N7        -11.8517   -1.8328   55.7022 N.am    1  ZINC001018118384   -0.5900
      8 C8        -10.7418   -2.6212   56.2549 C.3     1  ZINC001018118384    0.0700
      9 C9        -10.7847   -2.5289   57.7834 C.3     1  ZINC001018118384    0.1300
     10 H10       -10.0261   -3.1858   58.2089 H       1  ZINC001018118384    0.1100
     11 N11       -10.5237   -1.1480   58.1974 N.am    1  ZINC001018118384   -0.7000
     12 C12       -10.1061   -0.8882   59.4522 C.2     1  ZINC001018118384    0.6000
     13 O13        -9.9476   -1.7990   60.2406 O.2     1  ZINC001018118384   -0.4900
     14 C14        -9.8403    0.5086   59.8705 C.2     1  ZINC001018118384    0.0300
     15 C15       -10.0431    1.6295   59.1216 C.2     1  ZINC001018118384   -0.2300
     16 C16        -9.6361    2.6927   59.9759 C.2     1  ZINC001018118384    0.4800
     17 O17        -9.6445    3.8858   59.7221 O.2     1  ZINC001018118384   -0.5200
     18 N18        -9.2403    2.1074   61.1241 N.am    1  ZINC001018118384   -0.4500
     19 C19        -8.7384    2.8300   62.2955 C.3     1  ZINC001018118384    0.1100
     20 O20        -9.3608    0.9059   61.0589 O.3     1  ZINC001018118384    0.0000
     21 C21       -12.1679   -2.9582   58.2779 C.3     1  ZINC001018118384   -0.1300
     22 C22       -13.2305   -2.0164   57.7070 C.3     1  ZINC001018118384   -0.1300
     23 C23       -13.2147   -2.0987   56.1822 C.3     1  ZINC001018118384    0.1400
     24 H24       -13.5187   -3.0969   55.8669 H       1  ZINC001018118384    0.0700
     25 C25       -14.1791   -1.0620   55.6025 C.3     1  ZINC001018118384   -0.1400
     26 C26        -9.6426   -1.2161   53.2366 C.2     1  ZINC001018118384    0.0400
     27 N27        -8.3967   -0.6925   53.1549 N.pl3   1  ZINC001018118384   -0.5600
     28 H28        -7.0716    1.9558   53.9171 H       1  ZINC001018118384    0.0900
     29 H29        -6.9503    1.2055   55.5265 H       1  ZINC001018118384    0.1000
     30 H30        -6.1368    0.4564   54.1317 H       1  ZINC001018118384    0.0800
     31 H31       -10.8450   -3.6622   55.9486 H       1  ZINC001018118384    0.0800
     32 H32        -9.7945   -2.2233   55.8912 H       1  ZINC001018118384    0.1500
     33 H33       -10.6513   -0.4208   57.5684 H       1  ZINC001018118384    0.4100
     34 H34       -10.4239    1.6953   58.1132 H       1  ZINC001018118384    0.1900
     35 H35        -9.5714    3.0804   62.9524 H       1  ZINC001018118384    0.0800
     36 H36        -8.0279    2.2018   62.8330 H       1  ZINC001018118384    0.0900
     37 H37        -8.2423    3.7453   61.9727 H       1  ZINC001018118384    0.1100
     38 H38       -12.3711   -3.9771   57.9484 H       1  ZINC001018118384    0.0900
     39 H39       -12.1932   -2.9170   59.3667 H       1  ZINC001018118384    0.0800
     40 H40       -14.2129   -2.3085   58.0783 H       1  ZINC001018118384    0.0800
     41 H41       -13.0140   -0.9937   58.0158 H       1  ZINC001018118384    0.0600
     42 H42       -13.8822   -0.0660   55.9310 H       1  ZINC001018118384    0.0700
     43 H43       -14.1514   -1.1087   54.5138 H       1  ZINC001018118384    0.0800
     44 H44       -15.1907   -1.2726   55.9496 H       1  ZINC001018118384    0.0400
     45 H45       -10.0738   -1.9564   52.5791 H       1  ZINC001018118384    0.1900
     46 H46        -7.7240   -0.9178   52.4935 H       1  ZINC001018118384    0.4300
@<TRIPOS>BOND
     1     1     2    1
     2     1    28    1
     3     1    29    1
     4     1    30    1
     5     2    27    1
     6     2     3    2
     7     3     4    1
     8     4     5    1
     9     4    26    2
    10     5     6    2
    11     5     7   am
    12     7    23    1
    13     7     8    1
    14     8     9    1
    15     8    31    1
    16     8    32    1
    17     9    10    1
    18     9    11    1
    19     9    21    1
    20    11    12   am
    21    11    33    1
    22    12    13    2
    23    12    14    1
    24    14    20    1
    25    14    15    2
    26    15    16    1
    27    15    34    1
    28    16    17    2
    29    16    18   am
    30    18    19    1
    31    18    20    1
    32    19    35    1
    33    19    36    1
    34    19    37    1
    35    21    22    1
    36    21    38    1
    37    21    39    1
    38    22    23    1
    39    22    40    1
    40    22    41    1
    41    23    24    1
    42    23    25    1
    43    25    42    1
    44    25    43    1
    45    25    44    1
    46    26    27    1
    47    26    45    1
    48    27    46    1
@<TRIPOS>SUBSTRUCTURE
     1 ZINC001018118384        1 TEMP              0 ****  ****    0 ROOT


##########                                Name:    ZINC001217683559
##########                DOCK_Rotatable_Bonds:                   3
##########                         Heavy_Atoms:                  25
##########                    Molecular_Weight:             397.234
##########                DOCK_Rotatable_Bonds:                   3
##########                       Formal_Charge:          0.00999987
##########                     HBond_Acceptors:                   7
##########                        HBond_Donors:                   0
##########                         Heavy_Atoms:                  25
##########                          Grid_Score:          -26.140951
##########                     Grid_vdw_energy:          -25.077919
##########                      Grid_es_energy:           -1.063032
##########           Internal_energy_repulsive:           27.456697

@<TRIPOS>MOLECULE
ZINC001217683559
 38 42 1 0 0
SMALL
USER_CHARGES


@<TRIPOS>ATOM
      1 Br1        -5.5525    4.0936   50.8077 Br      1  ZINC001217683559    0.0100
      2 C2         -7.4171    4.0306   50.4994 C.ar    1  ZINC001217683559   -0.1200
      3 C3         -7.9324    4.3186   49.2456 C.ar    1  ZINC001217683559   -0.0500
      4 C4         -9.3063    4.2599   49.0656 C.ar    1  ZINC001217683559   -0.1500
      5 C5        -10.1165    3.9185   50.1336 C.ar    1  ZINC001217683559    0.1200
      6 N6         -9.6006    3.6499   51.3153 N.ar    1  ZINC001217683559   -0.4400
      7 C7         -8.2924    3.6884   51.5283 C.ar    1  ZINC001217683559    0.2200
      8 C8         -7.7566    3.3778   52.8778 C.2     1  ZINC001217683559    0.2100
      9 N9         -6.5476    3.6310   53.3084 N.2     1  ZINC001217683559   -0.3300
     10 O10        -6.4210    3.2561   54.4548 O.3     1  ZINC001217683559    0.1000
     11 C11        -7.5685    2.7095   54.8863 C.2     1  ZINC001217683559    0.2300
     12 C12        -7.8219    2.1361   56.2241 C.2     1  ZINC001217683559   -0.0600
     13 C13        -8.7290    1.1255   56.3745 C.2     1  ZINC001217683559    0.1800
     14 N14        -8.9677    0.5935   57.5989 N.pl3   1  ZINC001217683559   -0.2900
     15 N15        -9.8197   -0.4247   58.0504 N.2     1  ZINC001217683559   -0.3300
     16 C16        -9.6448   -0.5270   59.3467 C.2     1  ZINC001217683559    0.2800
     17 C17       -10.3619   -1.5014   60.2452 C.3     1  ZINC001217683559   -0.0300
     18 C18       -11.7914   -1.0666   60.6090 C.3     1  ZINC001217683559   -0.1200
     19 C19       -12.1982   -2.5401   60.4412 C.3     1  ZINC001217683559   -0.1400
     20 C20       -10.9970   -2.6817   59.4913 C.3     1  ZINC001217683559   -0.1200
     21 N21        -8.7405    0.3566   59.7457 N.2     1  ZINC001217683559   -0.5300
     22 C22        -8.3079    1.0560   58.7033 C.2     1  ZINC001217683559    0.2900
     23 C23        -7.3674    2.0968   58.5759 C.2     1  ZINC001217683559   -0.1000
     24 C24        -7.1214    2.6287   57.3503 C.2     1  ZINC001217683559   -0.0200
     25 N25        -8.4289    2.7876   53.8879 N.2     1  ZINC001217683559   -0.4300
     26 H26        -7.2789    4.5830   48.4275 H       1  ZINC001217683559    0.1600
     27 H27        -9.7396    4.4790   48.1009 H       1  ZINC001217683559    0.1500
     28 H28       -11.1868    3.8720   49.9967 H       1  ZINC001217683559    0.1800
     29 H29        -9.2596    0.7482   55.5129 H       1  ZINC001217683559    0.1900
     30 H30        -9.7638   -1.8036   61.1048 H       1  ZINC001217683559    0.1200
     31 H31       -11.8895   -0.7002   61.6309 H       1  ZINC001217683559    0.0700
     32 H32       -12.2458   -0.4018   59.8745 H       1  ZINC001217683559    0.1000
     33 H33       -12.1032   -3.1261   61.3554 H       1  ZINC001217683559    0.0800
     34 H34       -13.1618   -2.6738   59.9497 H       1  ZINC001217683559    0.0800
     35 H35       -11.2344   -2.4584   58.4510 H       1  ZINC001217683559    0.0900
     36 H36       -10.4540   -3.6192   59.6107 H       1  ZINC001217683559    0.0700
     37 H37        -6.8433    2.4664   59.4449 H       1  ZINC001217683559    0.1700
     38 H38        -6.4029    3.4271   57.2378 H       1  ZINC001217683559    0.1700
@<TRIPOS>BOND
     1     1     2    1
     2     2     7   ar
     3     2     3   ar
     4     3     4   ar
     5     3    26    1
     6     4     5   ar
     7     4    27    1
     8     5     6   ar
     9     5    28    1
    10     6     7   ar
    11     7     8    1
    12     8    25    1
    13     8     9    2
    14     9    10    1
    15    10    11    1
    16    11    12    1
    17    11    25    2
    18    12    24    1
    19    12    13    2
    20    13    14    1
    21    13    29    1
    22    14    22    1
    23    14    15    1
    24    15    16    2
    25    16    17    1
    26    16    21    1
    27    17    20    1
    28    17    18    1
    29    17    30    1
    30    18    19    1
    31    18    31    1
    32    18    32    1
    33    19    20    1
    34    19    33    1
    35    19    34    1
    36    20    35    1
    37    20    36    1
    38    21    22    2
    39    22    23    1
    40    23    24    2
    41    23    37    1
    42    24    38    1
@<TRIPOS>SUBSTRUCTURE
     1 ZINC001217683559        1 TEMP              0 ****  ****    0 ROOT


##########                                Name:    ZINC001220212140
##########                DOCK_Rotatable_Bonds:                   6
##########                         Heavy_Atoms:                  28
##########                    Molecular_Weight:             379.459
##########                DOCK_Rotatable_Bonds:                   6
##########                       Formal_Charge:         -0.00999925
##########                     HBond_Acceptors:                   6
##########                        HBond_Donors:                   1
##########                         Heavy_Atoms:                  28
##########                          Grid_Score:          -26.107658
##########                     Grid_vdw_energy:          -24.965212
##########                      Grid_es_energy:           -1.142447
##########           Internal_energy_repulsive:          173.906403

@<TRIPOS>MOLECULE
ZINC001220212140
 53 56 1 0 0
SMALL
USER_CHARGES


@<TRIPOS>ATOM
      1 C1        -11.4907   -0.7520   60.5528 C.3     1  ZINC001220212140   -0.1700
      2 C2        -10.0596   -1.0298   61.0170 C.3     1  ZINC001220212140    0.0800
      3 H3        -10.0217   -1.9313   61.6284 H       1  ZINC001220212140    0.1200
      4 C4         -9.1040   -1.1483   59.8062 C.3     1  ZINC001220212140   -0.1100
      5 C5         -8.5885    0.2718   59.6732 C.ar    1  ZINC001220212140   -0.1500
      6 C6         -7.9292    0.9228   58.6551 C.ar    1  ZINC001220212140   -0.0700
      7 C7         -7.5734    2.2580   58.8020 C.ar    1  ZINC001220212140    0.1400
      8 N8         -6.9025    2.9262   57.7688 N.am    1  ZINC001220212140   -0.6800
      9 C9         -7.4412    2.9718   56.5343 C.2     1  ZINC001220212140    0.7200
     10 O10        -8.5093    2.4331   56.3168 O.2     1  ZINC001220212140   -0.5700
     11 N11        -6.7960    3.6144   55.5407 N.am    1  ZINC001220212140   -0.6300
     12 C12        -5.5040    4.3053   55.6643 C.3     1  ZINC001220212140    0.0900
     13 C13        -5.1485    4.8647   54.2707 C.3     1  ZINC001220212140   -0.1100
     14 C14        -5.9844    3.9733   53.3147 C.3     1  ZINC001220212140   -0.1300
     15 H15        -5.4739    3.0318   53.1122 H       1  ZINC001220212140    0.1200
     16 C16        -6.2976    4.7012   52.0329 C.2     1  ZINC001220212140    0.5300
     17 O17        -6.0039    5.8719   51.9131 O.2     1  ZINC001220212140   -0.5100
     18 N18        -6.9040    4.0514   51.0197 N.am    1  ZINC001220212140   -0.5700
     19 C19        -7.2586    2.6374   51.1645 C.3     1  ZINC001220212140    0.0700
     20 C20        -7.1947    4.7274   49.8297 C.ar    1  ZINC001220212140    0.1400
     21 C21        -7.8257    4.0611   48.7872 C.ar    1  ZINC001220212140   -0.1100
     22 C22        -8.1114    4.7312   47.6138 C.ar    1  ZINC001220212140   -0.1100
     23 C23        -7.7694    6.0640   47.4762 C.ar    1  ZINC001220212140   -0.1200
     24 C24        -7.1407    6.7301   48.5121 C.ar    1  ZINC001220212140   -0.1100
     25 C25        -6.8582    6.0676   49.6905 C.ar    1  ZINC001220212140   -0.1200
     26 C26        -7.2655    3.7355   54.1486 C.3     1  ZINC001220212140    0.1400
     27 C27        -7.8869    2.9262   59.9776 C.ar    1  ZINC001220212140   -0.1100
     28 C28        -8.5444    2.2693   60.9966 C.ar    1  ZINC001220212140   -0.1200
     29 C29        -8.8999    0.9305   60.8560 C.ar    1  ZINC001220212140    0.0900
     30 O30        -9.5300    0.0964   61.7367 O.3     1  ZINC001220212140   -0.3000
     31 H31       -11.5083    0.1589   59.9543 H       1  ZINC001220212140    0.0600
     32 H32       -11.8466   -1.5886   59.9515 H       1  ZINC001220212140    0.0800
     33 H33       -12.1370   -0.6282   61.4217 H       1  ZINC001220212140    0.0700
     34 H34        -8.2892   -1.8401   60.0194 H       1  ZINC001220212140    0.0900
     35 H35        -9.6460   -1.4513   58.9104 H       1  ZINC001220212140    0.0900
     36 H36        -7.6889    0.3964   57.7432 H       1  ZINC001220212140    0.1400
     37 H37        -6.0504    3.3561   57.9423 H       1  ZINC001220212140    0.4100
     38 H38        -5.5875    5.1221   56.3814 H       1  ZINC001220212140    0.0700
     39 H39        -4.7369    3.6019   55.9882 H       1  ZINC001220212140    0.0700
     40 H40        -5.4494    5.9090   54.1860 H       1  ZINC001220212140    0.1000
     41 H41        -4.0831    4.7519   54.0701 H       1  ZINC001220212140    0.0900
     42 H42        -8.2642    2.5554   51.5772 H       1  ZINC001220212140    0.0700
     43 H43        -7.2259    2.1528   50.1888 H       1  ZINC001220212140    0.0800
     44 H44        -6.5499    2.1518   51.8354 H       1  ZINC001220212140    0.0800
     45 H45        -8.0924    3.0200   48.8939 H       1  ZINC001220212140    0.1200
     46 H46        -8.6021    4.2135   46.8028 H       1  ZINC001220212140    0.1300
     47 H47        -7.9935    6.5856   46.5574 H       1  ZINC001220212140    0.1300
     48 H48        -6.8743    7.7708   48.4011 H       1  ZINC001220212140    0.1300
     49 H49        -6.3672    6.5883   50.4991 H       1  ZINC001220212140    0.1200
     50 H50        -7.7604    2.8180   53.8303 H       1  ZINC001220212140    0.0900
     51 H51        -7.9423    4.5848   54.0546 H       1  ZINC001220212140    0.0700
     52 H52        -7.6143    3.9646   60.0949 H       1  ZINC001220212140    0.1300
     53 H53        -8.7847    2.7962   61.9083 H       1  ZINC001220212140    0.1300
@<TRIPOS>BOND
     1     1     2    1
     2     1    31    1
     3     1    32    1
     4     1    33    1
     5     2     3    1
     6     2    30    1
     7     2     4    1
     8     4     5    1
     9     4    34    1
    10     4    35    1
    11     5    29   ar
    12     5     6   ar
    13     6     7   ar
    14     6    36    1
    15     7     8    1
    16     7    27   ar
    17     8     9   am
    18     8    37    1
    19     9    10    2
    20     9    11   am
    21    11    26    1
    22    11    12    1
    23    12    13    1
    24    12    38    1
    25    12    39    1
    26    13    14    1
    27    13    40    1
    28    13    41    1
    29    14    15    1
    30    14    16    1
    31    14    26    1
    32    16    17    2
    33    16    18   am
    34    18    19    1
    35    18    20    1
    36    19    42    1
    37    19    43    1
    38    19    44    1
    39    20    25   ar
    40    20    21   ar
    41    21    22   ar
    42    21    45    1
    43    22    23   ar
    44    22    46    1
    45    23    24   ar
    46    23    47    1
    47    24    25   ar
    48    24    48    1
    49    25    49    1
    50    26    50    1
    51    26    51    1
    52    27    28   ar
    53    27    52    1
    54    28    29   ar
    55    28    53    1
    56    29    30    1
@<TRIPOS>SUBSTRUCTURE
     1 ZINC001220212140        1 TEMP              0 ****  ****    0 ROOT


##########                                Name:    ZINC000302023461
##########                DOCK_Rotatable_Bonds:                   3
##########                         Heavy_Atoms:                  25
##########                    Molecular_Weight:             356.362
##########                DOCK_Rotatable_Bonds:                   3
##########                       Formal_Charge:        -2.08616e-07
##########                     HBond_Acceptors:                   9
##########                        HBond_Donors:                   1
##########                         Heavy_Atoms:                  25
##########                          Grid_Score:          -26.103508
##########                     Grid_vdw_energy:          -23.829979
##########                      Grid_es_energy:           -2.273529
##########           Internal_energy_repulsive:           21.245018

@<TRIPOS>MOLECULE
ZINC000302023461
 37 40 1 0 0
SMALL
USER_CHARGES


@<TRIPOS>ATOM
      1 O1        -15.6628   -0.7170   61.2750 O.2     1  ZINC000302023461   -0.1600
      2 N2        -14.5678   -1.2126   61.0774 N.pl3   1  ZINC000302023461    0.0200
      3 O3        -14.4816   -2.3633   60.6875 O.2     1  ZINC000302023461   -0.1300
      4 C4        -13.3421   -0.4144   61.3051 C.ar    1  ZINC000302023461    0.0000
      5 C5        -13.4388    0.8900   61.7470 C.ar    1  ZINC000302023461   -0.0600
      6 C6        -12.2941    1.6366   61.9601 C.ar    1  ZINC000302023461   -0.0900
      7 C7        -11.0490    1.0797   61.7319 C.ar    1  ZINC000302023461   -0.0800
      8 C8        -10.9446   -0.2245   61.2900 C.ar    1  ZINC000302023461   -0.0500
      9 C9        -12.0922   -0.9791   61.0799 C.ar    1  ZINC000302023461   -0.1100
     10 S10       -11.9639   -2.6437   60.5165 S.3     1  ZINC000302023461    0.1900
     11 C11       -12.1267   -2.4845   58.7694 C.2     1  ZINC000302023461    0.2100
     12 N12       -13.0494   -3.0612   58.0342 N.2     1  ZINC000302023461   -0.3200
     13 N13       -12.8169   -2.6716   56.7052 N.pl3   1  ZINC000302023461   -0.4700
     14 C14       -11.7353   -1.8604   56.7291 C.2     1  ZINC000302023461    0.3500
     15 C15       -11.1148   -1.2031   55.5588 C.ar    1  ZINC000302023461   -0.0400
     16 C16       -11.7972   -1.1497   54.3430 C.ar    1  ZINC000302023461   -0.0900
     17 C17       -11.2156   -0.5377   53.2528 C.ar    1  ZINC000302023461   -0.1100
     18 C18        -9.9514    0.0268   53.3591 C.ar    1  ZINC000302023461    0.0800
     19 O19        -9.3933    0.6180   52.2679 O.3     1  ZINC000302023461   -0.3000
     20 C20        -8.2889    1.4974   52.5060 C.3     1  ZINC000302023461    0.0200
     21 C21        -7.3232    0.8047   53.4769 C.3     1  ZINC000302023461    0.0200
     22 O22        -8.0288    0.5323   54.6925 O.3     1  ZINC000302023461   -0.3000
     23 C23        -9.2669   -0.0204   54.5702 C.ar    1  ZINC000302023461    0.0500
     24 C24        -9.8475   -0.6294   55.6687 C.ar    1  ZINC000302023461   -0.0500
     25 N25       -11.3356   -1.7539   57.9809 N.2     1  ZINC000302023461   -0.5000
     26 H26       -14.4097    1.3280   61.9261 H       1  ZINC000302023461    0.1600
     27 H27       -12.3727    2.6569   62.3051 H       1  ZINC000302023461    0.1500
     28 H28       -10.1573    1.6655   61.8994 H       1  ZINC000302023461    0.1500
     29 H29        -9.9719   -0.6586   61.1114 H       1  ZINC000302023461    0.1600
     30 H30       -13.3303   -2.9329   55.9247 H       1  ZINC000302023461    0.4400
     31 H31       -12.7805   -1.5879   54.2557 H       1  ZINC000302023461    0.1300
     32 H32       -11.7453   -0.4975   52.3124 H       1  ZINC000302023461    0.1500
     33 H33        -7.7776    1.7080   51.5667 H       1  ZINC000302023461    0.1300
     34 H34        -8.6481    2.4277   52.9461 H       1  ZINC000302023461    0.0800
     35 H35        -6.9695   -0.1292   53.0399 H       1  ZINC000302023461    0.0800
     36 H36        -6.4761    1.4592   53.6823 H       1  ZINC000302023461    0.1300
     37 H37        -9.3184   -0.6644   56.6096 H       1  ZINC000302023461    0.1600
@<TRIPOS>BOND
     1     1     2    2
     2     2     3    2
     3     2     4    1
     4     4     9   ar
     5     4     5   ar
     6     5     6   ar
     7     5    26    1
     8     6     7   ar
     9     6    27    1
    10     7     8   ar
    11     7    28    1
    12     8     9   ar
    13     8    29    1
    14     9    10    1
    15    10    11    1
    16    11    25    1
    17    11    12    2
    18    12    13    1
    19    13    14    1
    20    13    30    1
    21    14    15    1
    22    14    25    2
    23    15    24   ar
    24    15    16   ar
    25    16    17   ar
    26    16    31    1
    27    17    18   ar
    28    17    32    1
    29    18    23   ar
    30    18    19    1
    31    19    20    1
    32    20    21    1
    33    20    33    1
    34    20    34    1
    35    21    22    1
    36    21    35    1
    37    21    36    1
    38    22    23    1
    39    23    24   ar
    40    24    37    1
@<TRIPOS>SUBSTRUCTURE
     1 ZINC000302023461        1 TEMP              0 ****  ****    0 ROOT


##########                                Name:    ZINC001708427409
##########                DOCK_Rotatable_Bonds:                   6
##########                         Heavy_Atoms:                  24
##########                    Molecular_Weight:             334.505
##########                DOCK_Rotatable_Bonds:                   6
##########                       Formal_Charge:          -0.0200006
##########                     HBond_Acceptors:                   5
##########                        HBond_Donors:                   1
##########                         Heavy_Atoms:                  24
##########                          Grid_Score:          -26.072060
##########                     Grid_vdw_energy:          -25.763708
##########                      Grid_es_energy:           -0.308352
##########           Internal_energy_repulsive:           23.298079

@<TRIPOS>MOLECULE
ZINC001708427409
 58 60 1 0 0
SMALL
USER_CHARGES


@<TRIPOS>ATOM
      1 C1        -10.7049   -0.7993   51.7938 C.3     1  ZINC001708427409   -0.1500
      2 C2         -9.3045   -0.4864   52.3243 C.3     1  ZINC001708427409   -0.1200
      3 C3         -9.4129    0.4527   53.5273 C.3     1  ZINC001708427409    0.0000
      4 H4        -10.1044    1.2626   53.2949 H       1  ZINC001708427409    0.0800
      5 C5         -8.0343    1.0348   53.8458 C.3     1  ZINC001708427409   -0.1400
      6 C6         -9.9216   -0.3153   54.7200 C.2     1  ZINC001708427409    0.1800
      7 N7         -9.7579   -1.5882   54.9459 N.2     1  ZINC001708427409   -0.2800
      8 N8        -10.3202   -1.9148   56.0545 N.2     1  ZINC001708427409   -0.3200
      9 C9        -10.8773   -0.8593   56.5998 C.2     1  ZINC001708427409    0.3600
     10 N10       -11.5745   -0.8216   57.7970 N.3     1  ZINC001708427409   -0.4200
     11 C11       -10.7160   -0.3041   58.8984 C.3     1  ZINC001708427409    0.0400
     12 C12       -11.3734   -0.8332   60.1920 C.3     1  ZINC001708427409   -0.0900
     13 H13       -12.0121   -0.0679   60.6327 H       1  ZINC001708427409    0.0900
     14 C14       -10.3015   -1.2705   61.1924 C.3     1  ZINC001708427409   -0.1500
     15 C15       -12.2233   -2.0516   59.7419 C.3     1  ZINC001708427409   -0.0800
     16 H16       -11.9349   -2.9530   60.2824 H       1  ZINC001708427409    0.0900
     17 C17       -13.6879   -1.7000   60.0047 C.3     1  ZINC001708427409   -0.1100
     18 C18       -14.5957   -2.7105   59.3041 C.3     1  ZINC001708427409   -0.1200
     19 C19       -14.4097   -2.5635   57.7955 C.3     1  ZINC001708427409   -0.1100
     20 C20       -12.9721   -2.8385   57.4040 C.3     1  ZINC001708427409   -0.1000
     21 C21       -11.9209   -2.1855   58.2517 C.3     1  ZINC001708427409    0.1000
     22 H22       -11.0144   -2.7833   58.1554 H       1  ZINC001708427409    0.0600
     23 N23       -10.6354    0.1953   55.7685 N.pl3   1  ZINC001708427409   -0.4700
     24 C24       -11.0608    1.5847   55.9556 C.3     1  ZINC001708427409    0.0800
     25 C25       -12.5437    1.7160   55.6027 C.3     1  ZINC001708427409    0.1200
     26 C26       -13.0562    3.0849   56.0548 C.3     1  ZINC001708427409   -0.1800
     27 C27       -12.7218    1.5791   54.0893 C.3     1  ZINC001708427409   -0.1500
     28 O28       -13.2836    0.6879   56.2643 O.3     1  ZINC001708427409   -0.5400
     29 H29       -11.1934    0.1263   51.4893 H       1  ZINC001708427409    0.0600
     30 H30       -10.6277   -1.4683   50.9367 H       1  ZINC001708427409    0.0600
     31 H31       -11.2915   -1.2790   52.5774 H       1  ZINC001708427409    0.0500
     32 H32        -8.8160   -1.4120   52.6288 H       1  ZINC001708427409    0.0700
     33 H33        -8.7179   -0.0067   51.5408 H       1  ZINC001708427409    0.0800
     34 H34        -7.6663    1.5903   52.9833 H       1  ZINC001708427409    0.0700
     35 H35        -8.1115    1.7038   54.7029 H       1  ZINC001708427409    0.0500
     36 H36        -7.3428    0.2249   54.0783 H       1  ZINC001708427409    0.0700
     37 H37        -9.7014   -0.6907   58.8027 H       1  ZINC001708427409    0.0600
     38 H38       -10.7096    0.7860   58.8945 H       1  ZINC001708427409    0.0800
     39 H39        -9.6819   -0.4143   61.4585 H       1  ZINC001708427409    0.0600
     40 H40       -10.7803   -1.6651   62.0886 H       1  ZINC001708427409    0.0600
     41 H41        -9.6787   -2.0439   60.7428 H       1  ZINC001708427409    0.0600
     42 H42       -13.8795   -1.7237   61.0776 H       1  ZINC001708427409    0.0600
     43 H43       -13.8951   -0.7005   59.6224 H       1  ZINC001708427409    0.0700
     44 H44       -14.3238   -3.7207   59.6099 H       1  ZINC001708427409    0.0600
     45 H45       -15.6351   -2.5125   59.5660 H       1  ZINC001708427409    0.0600
     46 H46       -15.0629   -3.2695   57.2827 H       1  ZINC001708427409    0.0600
     47 H47       -14.6749   -1.5489   57.4982 H       1  ZINC001708427409    0.0600
     48 H48       -12.8076   -3.9153   57.4441 H       1  ZINC001708427409    0.0600
     49 H49       -12.8313   -2.5149   56.3728 H       1  ZINC001708427409    0.0700
     50 H50       -10.9076    1.8748   56.9950 H       1  ZINC001708427409    0.0900
     51 H51       -10.4739    2.2349   55.3067 H       1  ZINC001708427409    0.1000
     52 H52       -12.4919    3.8690   55.5501 H       1  ZINC001708427409    0.0700
     53 H53       -14.1128    3.1784   55.8035 H       1  ZINC001708427409    0.0700
     54 H54       -12.9293    3.1824   57.1330 H       1  ZINC001708427409    0.0600
     55 H55       -12.2822    0.6394   53.7551 H       1  ZINC001708427409    0.0700
     56 H56       -13.7843    1.5900   53.8460 H       1  ZINC001708427409    0.0700
     57 H57       -12.2260    2.4106   53.5883 H       1  ZINC001708427409    0.0700
     58 H58       -13.0075   -0.2086   56.0295 H       1  ZINC001708427409    0.3800
@<TRIPOS>BOND
     1     1     2    1
     2     1    29    1
     3     1    30    1
     4     1    31    1
     5     2     3    1
     6     2    32    1
     7     2    33    1
     8     3     4    1
     9     3     5    1
    10     3     6    1
    11     5    34    1
    12     5    35    1
    13     5    36    1
    14     6    23    1
    15     6     7    2
    16     7     8    1
    17     8     9    2
    18     9    10    1
    19     9    23    1
    20    10    21    1
    21    10    11    1
    22    11    12    1
    23    11    37    1
    24    11    38    1
    25    12    13    1
    26    12    14    1
    27    12    15    1
    28    14    39    1
    29    14    40    1
    30    14    41    1
    31    15    16    1
    32    15    21    1
    33    15    17    1
    34    17    18    1
    35    17    42    1
    36    17    43    1
    37    18    19    1
    38    18    44    1
    39    18    45    1
    40    19    20    1
    41    19    46    1
    42    19    47    1
    43    20    21    1
    44    20    48    1
    45    20    49    1
    46    21    22    1
    47    23    24    1
    48    24    25    1
    49    24    50    1
    50    24    51    1
    51    25    26    1
    52    25    27    1
    53    25    28    1
    54    26    52    1
    55    26    53    1
    56    26    54    1
    57    27    55    1
    58    27    56    1
    59    27    57    1
    60    28    58    1
@<TRIPOS>SUBSTRUCTURE
     1 ZINC001708427409        1 TEMP              0 ****  ****    0 ROOT


##########                                Name:    ZINC000893400114
##########                DOCK_Rotatable_Bonds:                   6
##########                         Heavy_Atoms:                  27
##########                    Molecular_Weight:             381.472
##########                DOCK_Rotatable_Bonds:                   6
##########                       Formal_Charge:           0.0300001
##########                     HBond_Acceptors:                   8
##########                        HBond_Donors:                   1
##########                         Heavy_Atoms:                  27
##########                          Grid_Score:          -26.052448
##########                     Grid_vdw_energy:          -24.802063
##########                      Grid_es_energy:           -1.250385
##########           Internal_energy_repulsive:           86.371613

@<TRIPOS>MOLECULE
ZINC000893400114
 58 61 1 0 0
SMALL
USER_CHARGES


@<TRIPOS>ATOM
      1 O1         -8.6055    1.8960   56.3919 O.2     1  ZINC000893400114   -0.5600
      2 C2         -9.1145    0.8811   55.9568 C.2     1  ZINC000893400114    0.7100
      3 N3         -9.8640    0.1039   56.7634 N.am    1  ZINC000893400114   -0.7300
      4 C4        -10.0606    0.4788   58.1659 C.3     1  ZINC000893400114    0.1400
      5 H5         -9.8346    1.5349   58.3128 H       1  ZINC000893400114    0.1200
      6 C6         -9.1807   -0.3963   59.0885 C.3     1  ZINC000893400114   -0.1400
      7 C7        -10.1566   -1.5313   59.4705 C.3     1  ZINC000893400114    0.1000
      8 N8        -11.4995   -0.9550   59.3354 N.am    1  ZINC000893400114   -0.6200
      9 C9        -12.7102   -1.5333   59.9238 C.3     1  ZINC000893400114    0.1600
     10 C10       -13.3577   -0.5155   60.8676 C.3     1  ZINC000893400114   -0.1700
     11 C11       -14.6627   -1.0983   61.4164 C.3     1  ZINC000893400114    0.0700
     12 O12       -15.5279   -1.4323   60.3293 O.3     1  ZINC000893400114   -0.3800
     13 C13       -14.9944   -2.4151   59.4396 C.3     1  ZINC000893400114    0.0700
     14 C14       -13.7027   -1.8852   58.8114 C.3     1  ZINC000893400114   -0.1700
     15 C15       -11.4770    0.1749   58.6017 C.2     1  ZINC000893400114    0.5100
     16 O16       -12.4497    0.8470   58.3313 O.2     1  ZINC000893400114   -0.4900
     17 N17        -8.9336    0.5362   54.6665 N.am    1  ZINC000893400114   -0.6300
     18 C18        -9.5443   -0.6842   54.1159 C.3     1  ZINC000893400114    0.0800
     19 C19       -10.2848   -0.3144   52.8256 C.3     1  ZINC000893400114    0.0500
     20 O20        -9.3966    0.3970   51.9604 O.3     1  ZINC000893400114   -0.3800
     21 C21        -8.9300    1.6389   52.4934 C.3     1  ZINC000893400114    0.0600
     22 C22        -8.1246    1.3720   53.7653 C.3     1  ZINC000893400114    0.1400
     23 H23        -7.2040    0.8458   53.5132 H       1  ZINC000893400114    0.0800
     24 C24        -7.7891    2.6983   54.4503 C.3     1  ZINC000893400114   -0.1200
     25 C25        -7.1524    3.6498   53.4354 C.3     1  ZINC000893400114    0.0700
     26 H26        -7.7413    3.6600   52.5183 H       1  ZINC000893400114    0.0800
     27 C27        -5.7093    3.1967   53.1262 C.3     1  ZINC000893400114   -0.1500
     28 C28        -4.9522    4.5493   53.0314 C.3     1  ZINC000893400114   -0.1600
     29 C29        -5.7120    5.3866   54.0910 C.3     1  ZINC000893400114    0.0500
     30 O30        -7.0849    4.9712   53.9842 O.3     1  ZINC000893400114   -0.3800
     31 H31       -10.2734   -0.7037   56.4153 H       1  ZINC000893400114    0.4000
     32 H32        -8.3188   -0.7882   58.5485 H       1  ZINC000893400114    0.1000
     33 H33        -8.8660    0.1610   59.9708 H       1  ZINC000893400114    0.1000
     34 H34       -10.0382   -2.3752   58.7908 H       1  ZINC000893400114    0.0700
     35 H35        -9.9834   -1.8474   60.4991 H       1  ZINC000893400114    0.0800
     36 H36       -12.4509   -2.4345   60.4795 H       1  ZINC000893400114    0.0900
     37 H37       -12.6790   -0.3011   61.6932 H       1  ZINC000893400114    0.0800
     38 H38       -13.5705    0.4036   60.3217 H       1  ZINC000893400114    0.0900
     39 H39       -14.4447   -1.9951   61.9963 H       1  ZINC000893400114    0.0500
     40 H40       -15.1496   -0.3615   62.0553 H       1  ZINC000893400114    0.1000
     41 H41       -14.7808   -3.3292   59.9936 H       1  ZINC000893400114    0.0500
     42 H42       -15.7202   -2.6269   58.6545 H       1  ZINC000893400114    0.1000
     43 H43       -13.9225   -0.9937   58.2239 H       1  ZINC000893400114    0.0900
     44 H44       -13.2708   -2.6503   58.1664 H       1  ZINC000893400114    0.0700
     45 H45        -8.7674   -1.4165   53.8963 H       1  ZINC000893400114    0.0800
     46 H46       -10.2482   -1.0999   54.8369 H       1  ZINC000893400114    0.0800
     47 H47       -10.6270   -1.2225   52.3292 H       1  ZINC000893400114    0.1100
     48 H48       -11.1416    0.3154   53.0653 H       1  ZINC000893400114    0.0500
     49 H49        -8.2974    2.1359   51.7581 H       1  ZINC000893400114    0.1300
     50 H50        -9.7818    2.2757   52.7319 H       1  ZINC000893400114    0.0500
     51 H51        -8.7019    3.1450   54.8442 H       1  ZINC000893400114    0.0800
     52 H52        -7.0906    2.5185   55.2677 H       1  ZINC000893400114    0.1100
     53 H53        -5.3124    2.5859   53.9371 H       1  ZINC000893400114    0.0800
     54 H54        -5.6658    2.6605   52.1782 H       1  ZINC000893400114    0.0800
     55 H55        -3.9029    4.4321   53.3020 H       1  ZINC000893400114    0.0800
     56 H56        -5.0533    4.9874   52.0384 H       1  ZINC000893400114    0.0800
     57 H57        -5.3278    5.1729   55.0884 H       1  ZINC000893400114    0.0600
     58 H58        -5.6210    6.4499   53.8694 H       1  ZINC000893400114    0.0800
@<TRIPOS>BOND
     1     1     2    2
     2     2     3   am
     3     2    17   am
     4     3     4    1
     5     3    31    1
     6     4     5    1
     7     4    15    1
     8     4     6    1
     9     6     7    1
    10     6    32    1
    11     6    33    1
    12     7     8    1
    13     7    34    1
    14     7    35    1
    15     8     9    1
    16     8    15   am
    17     9    14    1
    18     9    10    1
    19     9    36    1
    20    10    11    1
    21    10    37    1
    22    10    38    1
    23    11    12    1
    24    11    39    1
    25    11    40    1
    26    12    13    1
    27    13    14    1
    28    13    41    1
    29    13    42    1
    30    14    43    1
    31    14    44    1
    32    15    16    2
    33    17    22    1
    34    17    18    1
    35    18    19    1
    36    18    45    1
    37    18    46    1
    38    19    20    1
    39    19    47    1
    40    19    48    1
    41    20    21    1
    42    21    22    1
    43    21    49    1
    44    21    50    1
    45    22    23    1
    46    22    24    1
    47    24    25    1
    48    24    51    1
    49    24    52    1
    50    25    26    1
    51    25    30    1
    52    25    27    1
    53    27    28    1
    54    27    53    1
    55    27    54    1
    56    28    29    1
    57    28    55    1
    58    28    56    1
    59    29    30    1
    60    29    57    1
    61    29    58    1
@<TRIPOS>SUBSTRUCTURE
     1 ZINC000893400114        1 TEMP              0 ****  ****    0 ROOT


##########                                Name:    ZINC000950547210
##########                DOCK_Rotatable_Bonds:                   5
##########                         Heavy_Atoms:                  25
##########                    Molecular_Weight:              346.47
##########                DOCK_Rotatable_Bonds:                   5
##########                       Formal_Charge:         5.58794e-07
##########                     HBond_Acceptors:                   5
##########                        HBond_Donors:                   1
##########                         Heavy_Atoms:                  25
##########                          Grid_Score:          -25.973957
##########                     Grid_vdw_energy:          -23.588959
##########                      Grid_es_energy:           -2.384999
##########           Internal_energy_repulsive:           18.294069

@<TRIPOS>MOLECULE
ZINC000950547210
 55 58 1 0 0
SMALL
USER_CHARGES


@<TRIPOS>ATOM
      1 O1         -8.5112    0.6684   57.2905 O.2     1  ZINC000950547210   -0.5200
      2 C2         -9.4912    1.3332   57.0288 C.2     1  ZINC000950547210    0.5200
      3 N3        -10.1082    2.0353   57.9996 N.am    1  ZINC000950547210   -0.7300
      4 C4         -9.5986    1.9909   59.3724 C.3     1  ZINC000950547210    0.1300
      5 H5         -8.6211    1.5087   59.3821 H       1  ZINC000950547210    0.0900
      6 C6         -9.4707    3.4158   59.9162 C.3     1  ZINC000950547210   -0.1300
      7 C7         -8.9074    3.3722   61.3385 C.3     1  ZINC000950547210   -0.1300
      8 C8         -9.8705    2.5948   62.2412 C.3     1  ZINC000950547210    0.1000
      9 N9        -10.1124    1.2729   61.6472 N.am    1  ZINC000950547210   -0.6100
     10 C10        -9.9192    0.1505   62.3679 C.2     1  ZINC000950547210    0.5600
     11 O11       -10.1230   -0.9378   61.8647 O.2     1  ZINC000950547210   -0.5200
     12 C12        -9.4619    0.2417   63.7630 C.2     1  ZINC000950547210   -0.1400
     13 C13       -10.3626    0.3287   64.7252 C.2     1  ZINC000950547210   -0.1500
     14 C14        -9.9884    0.4345   66.1767 C.3     1  ZINC000950547210    0.0900
     15 O15        -8.6203    0.0647   66.3591 O.3     1  ZINC000950547210   -0.3700
     16 C16        -7.7303    0.7446   65.4655 C.3     1  ZINC000950547210    0.0600
     17 C17        -7.9845    0.2267   64.0456 C.3     1  ZINC000950547210   -0.1100
     18 C18       -10.5690    1.1972   60.2527 C.3     1  ZINC000950547210    0.1000
     19 C19       -10.0154    1.3789   55.6166 C.3     1  ZINC000950547210   -0.1000
     20 H20       -11.1052    1.3594   55.6327 H       1  ZINC000950547210    0.1000
     21 C21        -9.4950    0.1678   54.8400 C.3     1  ZINC000950547210   -0.1100
     22 C22        -8.6711    0.6453   53.6424 C.3     1  ZINC000950547210   -0.0900
     23 C23        -9.5502    1.4992   52.7265 C.3     1  ZINC000950547210   -0.1100
     24 C24       -10.0706    2.7103   53.5031 C.3     1  ZINC000950547210   -0.1100
     25 C25        -9.5384    2.6640   54.9369 C.3     1  ZINC000950547210   -0.0600
     26 C26        -8.0088    2.6915   54.9142 C.3     1  ZINC000950547210   -0.1300
     27 C27        -7.4884    1.4802   54.1376 C.3     1  ZINC000950547210   -0.1200
     28 H28       -10.8898    2.5701   57.7895 H       1  ZINC000950547210    0.4000
     29 H29        -8.7993    3.9894   59.2771 H       1  ZINC000950547210    0.0800
     30 H30       -10.4524    3.8891   59.9288 H       1  ZINC000950547210    0.0700
     31 H31        -7.9365    2.8767   61.3302 H       1  ZINC000950547210    0.0700
     32 H32        -8.7946    4.3883   61.7164 H       1  ZINC000950547210    0.0900
     33 H33        -9.4283    2.4755   63.2303 H       1  ZINC000950547210    0.0900
     34 H34       -10.8127    3.1367   62.3229 H       1  ZINC000950547210    0.0700
     35 H35       -11.4091    0.3242   64.4582 H       1  ZINC000950547210    0.1200
     36 H36       -10.1335    1.4609   66.5135 H       1  ZINC000950547210    0.0700
     37 H37       -10.6236   -0.2295   66.7629 H       1  ZINC000950547210    0.1100
     38 H38        -7.9183    1.8174   65.5072 H       1  ZINC000950547210    0.0600
     39 H39        -6.6982    0.5392   65.7499 H       1  ZINC000950547210    0.1000
     40 H40        -7.6021   -0.7902   63.9562 H       1  ZINC000950547210    0.0900
     41 H41        -7.4756    0.8700   63.3280 H       1  ZINC000950547210    0.0900
     42 H42       -11.5682    1.6252   60.1717 H       1  ZINC000950547210    0.0700
     43 H43       -10.5880    0.1561   59.9305 H       1  ZINC000950547210    0.1000
     44 H44        -8.8687   -0.4406   55.4925 H       1  ZINC000950547210    0.0700
     45 H45       -10.3375   -0.4271   54.4872 H       1  ZINC000950547210    0.0700
     46 H46        -8.3003   -0.2175   53.0892 H       1  ZINC000950547210    0.0700
     47 H47        -8.9632    1.8394   51.8734 H       1  ZINC000950547210    0.0600
     48 H48       -10.3928    0.9044   52.3738 H       1  ZINC000950547210    0.0600
     49 H49        -9.7307    3.6259   53.0189 H       1  ZINC000950547210    0.0700
     50 H50       -11.1602    2.6908   53.5192 H       1  ZINC000950547210    0.0600
     51 H51        -9.9091    3.5268   55.4901 H       1  ZINC000950547210    0.0800
     52 H52        -7.6689    3.6069   54.4299 H       1  ZINC000950547210    0.0600
     53 H53        -7.6296    2.6584   55.9356 H       1  ZINC000950547210    0.0900
     54 H54        -6.8621    0.8720   54.7901 H       1  ZINC000950547210    0.0600
     55 H55        -6.9015    1.8205   53.2844 H       1  ZINC000950547210    0.0600
@<TRIPOS>BOND
     1     1     2    2
     2     2     3   am
     3     2    19    1
     4     3     4    1
     5     3    28    1
     6     4     5    1
     7     4    18    1
     8     4     6    1
     9     6     7    1
    10     6    29    1
    11     6    30    1
    12     7     8    1
    13     7    31    1
    14     7    32    1
    15     8     9    1
    16     8    33    1
    17     8    34    1
    18     9    10   am
    19     9    18    1
    20    10    11    2
    21    10    12    1
    22    12    17    1
    23    12    13    2
    24    13    14    1
    25    13    35    1
    26    14    15    1
    27    14    36    1
    28    14    37    1
    29    15    16    1
    30    16    17    1
    31    16    38    1
    32    16    39    1
    33    17    40    1
    34    17    41    1
    35    18    42    1
    36    18    43    1
    37    19    20    1
    38    19    25    1
    39    19    21    1
    40    21    22    1
    41    21    44    1
    42    21    45    1
    43    22    27    1
    44    22    23    1
    45    22    46    1
    46    23    24    1
    47    23    47    1
    48    23    48    1
    49    24    25    1
    50    24    49    1
    51    24    50    1
    52    25    26    1
    53    25    51    1
    54    26    27    1
    55    26    52    1
    56    26    53    1
    57    27    54    1
    58    27    55    1
@<TRIPOS>SUBSTRUCTURE
     1 ZINC000950547210        1 TEMP              0 ****  ****    0 ROOT


##########                                Name:    ZINC001362451754
##########                DOCK_Rotatable_Bonds:                   6
##########                         Heavy_Atoms:                  22
##########                    Molecular_Weight:             339.846
##########                DOCK_Rotatable_Bonds:                   6
##########                       Formal_Charge:         -0.00999987
##########                     HBond_Acceptors:                   7
##########                        HBond_Donors:                   1
##########                         Heavy_Atoms:                  22
##########                          Grid_Score:          -25.964136
##########                     Grid_vdw_energy:          -25.710842
##########                      Grid_es_energy:           -0.253295
##########           Internal_energy_repulsive:           16.200872

@<TRIPOS>MOLECULE
ZINC001362451754
 40 42 1 0 0
SMALL
USER_CHARGES


@<TRIPOS>ATOM
      1 C1         -9.4764    0.3632   52.7330 C.3     1  ZINC001362451754   -0.1700
      2 C2         -8.4754    0.1110   53.8623 C.3     1  ZINC001362451754    0.1400
      3 H3         -7.9048   -0.7952   53.6591 H       1  ZINC001362451754    0.0800
      4 C4         -7.5190    1.3149   53.9945 C.3     1  ZINC001362451754   -0.1000
      5 H5         -6.5168    0.9832   54.2661 H       1  ZINC001362451754    0.1000
      6 C6         -7.4891    2.1274   52.6984 C.3     1  ZINC001362451754    0.0900
      7 O7         -6.6177    3.2485   52.8589 O.3     1  ZINC001362451754   -0.5700
      8 C8         -8.1549    2.1393   55.1447 C.3     1  ZINC001362451754   -0.1200
      9 C9         -8.7065    1.0227   56.0623 C.3     1  ZINC001362451754    0.0900
     10 N10        -9.1878   -0.0230   55.1414 N.am    1  ZINC001362451754   -0.6100
     11 C11       -10.1292   -0.9454   55.4233 C.2     1  ZINC001362451754    0.6100
     12 O12       -10.4497   -1.7644   54.5821 O.2     1  ZINC001362451754   -0.5200
     13 C13       -10.7671   -0.9619   56.7430 C.2     1  ZINC001362451754   -0.2500
     14 C14       -12.0908   -0.7260   56.9866 C.2     1  ZINC001362451754   -0.0500
     15 C15       -12.4198   -0.7988   58.3194 C.2     1  ZINC001362451754   -0.1100
     16 C16       -11.4044   -1.0945   59.1393 C.2     1  ZINC001362451754   -0.2500
     17 C17       -11.5265   -1.2310   60.6351 C.3     1  ZINC001362451754    0.2100
     18 N18       -10.4515   -0.4761   61.2838 N.pl3   1  ZINC001362451754   -0.3700
     19 C19        -9.8380   -0.8027   62.4416 C.2     1  ZINC001362451754    0.0700
     20 C20        -8.9044    0.1444   62.6949 C.2     1  ZINC001362451754   -0.1800
     21 Cl21       -7.8373    0.1866   64.0635 Cl      1  ZINC001362451754   -0.0400
     22 C22        -8.9560    1.0865   61.6615 C.2     1  ZINC001362451754    0.0700
     23 N23        -9.8826    0.7154   60.8156 N.2     1  ZINC001362451754   -0.2700
     24 S24        -9.9514   -1.2881   58.2662 S.3     1  ZINC001362451754    0.2300
     25 H25       -10.0463    1.2672   52.9479 H       1  ZINC001362451754    0.0600
     26 H26        -8.9395    0.4870   51.7925 H       1  ZINC001362451754    0.0700
     27 H27       -10.1565   -0.4849   52.6542 H       1  ZINC001362451754    0.0700
     28 H28        -7.1273    1.4995   51.8841 H       1  ZINC001362451754    0.0500
     29 H29        -8.4946    2.4790   52.4668 H       1  ZINC001362451754    0.0500
     30 H30        -5.8761    3.0875   53.4582 H       1  ZINC001362451754    0.3800
     31 H31        -7.4021    2.7352   55.6609 H       1  ZINC001362451754    0.0900
     32 H32        -8.9624    2.7702   54.7732 H       1  ZINC001362451754    0.0800
     33 H33        -9.5289    1.4015   56.6693 H       1  ZINC001362451754    0.0800
     34 H34        -7.9129    0.6316   56.6990 H       1  ZINC001362451754    0.0800
     35 H35       -12.8065   -0.5004   56.2099 H       1  ZINC001362451754    0.1600
     36 H36       -13.4249   -0.6332   58.6781 H       1  ZINC001362451754    0.1500
     37 H37       -12.4912   -0.8398   60.9582 H       1  ZINC001362451754    0.1100
     38 H38       -11.4498   -2.2826   60.9115 H       1  ZINC001362451754    0.1100
     39 H39       -10.0520   -1.6659   63.0543 H       1  ZINC001362451754    0.1800
     40 H40        -8.3376    1.9680   61.5770 H       1  ZINC001362451754    0.1900
@<TRIPOS>BOND
     1     1     2    1
     2     1    25    1
     3     1    26    1
     4     1    27    1
     5     2     3    1
     6     2    10    1
     7     2     4    1
     8     4     5    1
     9     4     6    1
    10     4     8    1
    11     6     7    1
    12     6    28    1
    13     6    29    1
    14     7    30    1
    15     8     9    1
    16     8    31    1
    17     8    32    1
    18     9    10    1
    19     9    33    1
    20     9    34    1
    21    10    11   am
    22    11    12    2
    23    11    13    1
    24    13    24    1
    25    13    14    2
    26    14    15    1
    27    14    35    1
    28    15    16    2
    29    15    36    1
    30    16    17    1
    31    16    24    1
    32    17    18    1
    33    17    37    1
    34    17    38    1
    35    18    23    1
    36    18    19    1
    37    19    20    2
    38    19    39    1
    39    20    21    1
    40    20    22    1
    41    22    23    2
    42    22    40    1
@<TRIPOS>SUBSTRUCTURE
     1 ZINC001362451754        1 TEMP              0 ****  ****    0 ROOT


##########                                Name:    ZINC000581017854
##########                DOCK_Rotatable_Bonds:                   6
##########                         Heavy_Atoms:                  24
##########                    Molecular_Weight:             330.334
##########                DOCK_Rotatable_Bonds:                   6
##########                       Formal_Charge:           0.0099998
##########                     HBond_Acceptors:                   6
##########                        HBond_Donors:                   2
##########                         Heavy_Atoms:                  24
##########                          Grid_Score:          -25.962351
##########                     Grid_vdw_energy:          -24.951231
##########                      Grid_es_energy:           -1.011120
##########           Internal_energy_repulsive:            8.937304

@<TRIPOS>MOLECULE
ZINC000581017854
 40 42 1 0 0
SMALL
USER_CHARGES


@<TRIPOS>ATOM
      1 C1         -6.7819    5.7928   59.9281 C.3     1  ZINC000581017854   -0.1600
      2 C2         -7.0808    4.6578   58.9464 C.3     1  ZINC000581017854    0.1500
      3 H3         -7.9476    4.9208   58.3400 H       1  ZINC000581017854    0.1100
      4 C4         -5.8701    4.4380   58.0371 C.3     1  ZINC000581017854    0.0500
      5 O5         -4.7767    3.9412   58.8116 O.3     1  ZINC000581017854   -0.3100
      6 C6         -3.5998    3.7430   58.1615 C.ar    1  ZINC000581017854    0.1600
      7 C7         -3.4951    4.0370   56.8098 C.ar    1  ZINC000581017854   -0.2200
      8 C8         -2.2980    3.8352   56.1498 C.ar    1  ZINC000581017854   -0.0500
      9 C9         -1.2044    3.3401   56.8345 C.ar    1  ZINC000581017854   -0.1900
     10 C10        -1.3054    3.0451   58.1840 C.ar    1  ZINC000581017854    0.1400
     11 F11        -0.2352    2.5612   58.8516 F       1  ZINC000581017854   -0.1300
     12 C12        -2.5003    3.2520   58.8499 C.ar    1  ZINC000581017854   -0.1900
     13 N13        -7.3612    3.4284   59.6920 N.am    1  ZINC000581017854   -0.7300
     14 C14        -8.2078    2.5108   59.1846 C.2     1  ZINC000581017854    0.5900
     15 O15        -8.7404    2.7040   58.1078 O.2     1  ZINC000581017854   -0.5400
     16 C16        -8.4877    1.2770   59.9315 C.2     1  ZINC000581017854   -0.2200
     17 C17        -8.5853    0.0173   59.4191 C.2     1  ZINC000581017854    0.1100
     18 N18        -8.8528   -0.8629   60.4143 N.pl3   1  ZINC000581017854   -0.5700
     19 C19        -8.9411   -0.2080   61.6255 C.ar    1  ZINC000581017854    0.1100
     20 C20        -9.1917   -0.6387   62.9238 C.ar    1  ZINC000581017854   -0.1600
     21 C21        -9.2191    0.2742   63.9585 C.ar    1  ZINC000581017854    0.1200
     22 F22        -9.4624   -0.1487   65.2183 F       1  ZINC000581017854   -0.1400
     23 C23        -8.9979    1.6240   63.7159 C.ar    1  ZINC000581017854   -0.1700
     24 C24        -8.7481    2.0679   62.4358 C.ar    1  ZINC000581017854   -0.0300
     25 C25        -8.7121    1.1562   61.3841 C.ar    1  ZINC000581017854   -0.0700
     26 H26        -6.5732    6.7075   59.3733 H       1  ZINC000581017854    0.0700
     27 H27        -7.6444    5.9493   60.5758 H       1  ZINC000581017854    0.0700
     28 H28        -5.9151    5.5299   60.5344 H       1  ZINC000581017854    0.0700
     29 H29        -6.1244    3.7150   57.2620 H       1  ZINC000581017854    0.0700
     30 H30        -5.5872    5.3832   57.5737 H       1  ZINC000581017854    0.0800
     31 H31        -4.3491    4.4233   56.2733 H       1  ZINC000581017854    0.1400
     32 H32        -2.2171    4.0642   55.0974 H       1  ZINC000581017854    0.1400
     33 H33        -0.2698    3.1829   56.3165 H       1  ZINC000581017854    0.1400
     34 H34        -2.5796    3.0225   59.9022 H       1  ZINC000581017854    0.1400
     35 H35        -6.9376    3.2748   60.5510 H       1  ZINC000581017854    0.4000
     36 H36        -8.4673   -0.2404   58.3770 H       1  ZINC000581017854    0.1800
     37 H37        -8.9666   -1.8185   60.2922 H       1  ZINC000581017854    0.4200
     38 H38        -9.3652   -1.6860   63.1222 H       1  ZINC000581017854    0.1400
     39 H39        -9.0223    2.3284   64.5343 H       1  ZINC000581017854    0.1400
     40 H40        -8.5769    3.1179   62.2496 H       1  ZINC000581017854    0.1500
@<TRIPOS>BOND
     1     1     2    1
     2     1    26    1
     3     1    27    1
     4     1    28    1
     5     2     3    1
     6     2     4    1
     7     2    13    1
     8     4     5    1
     9     4    29    1
    10     4    30    1
    11     5     6    1
    12     6    12   ar
    13     6     7   ar
    14     7     8   ar
    15     7    31    1
    16     8     9   ar
    17     8    32    1
    18     9    10   ar
    19     9    33    1
    20    10    11    1
    21    10    12   ar
    22    12    34    1
    23    13    14   am
    24    13    35    1
    25    14    15    2
    26    14    16    1
    27    16    25    1
    28    16    17    2
    29    17    18    1
    30    17    36    1
    31    18    19    1
    32    18    37    1
    33    19    25   ar
    34    19    20   ar
    35    20    21   ar
    36    20    38    1
    37    21    22    1
    38    21    23   ar
    39    23    24   ar
    40    23    39    1
    41    24    25   ar
    42    24    40    1
@<TRIPOS>SUBSTRUCTURE
     1 ZINC000581017854        1 TEMP              0 ****  ****    0 ROOT


##########                                Name:    ZINC000632456679
##########                DOCK_Rotatable_Bonds:                   6
##########                         Heavy_Atoms:                  24
##########                    Molecular_Weight:              374.82
##########                DOCK_Rotatable_Bonds:                   6
##########                       Formal_Charge:          -0.0299999
##########                     HBond_Acceptors:                   9
##########                        HBond_Donors:                   1
##########                         Heavy_Atoms:                  24
##########                          Grid_Score:          -25.905979
##########                     Grid_vdw_energy:          -25.637337
##########                      Grid_es_energy:           -0.268642
##########           Internal_energy_repulsive:           33.219635

@<TRIPOS>MOLECULE
ZINC000632456679
 40 41 1 0 0
SMALL
USER_CHARGES


@<TRIPOS>ATOM
      1 C1        -10.0779   -1.5105   59.8392 C.3     1  ZINC000632456679   -0.1600
      2 C2        -10.0702   -0.0605   59.3509 C.3     1  ZINC000632456679    0.1900
      3 C3        -11.5095    0.4163   59.1462 C.3     1  ZINC000632456679   -0.2000
      4 C4         -9.3830    0.8247   60.3926 C.3     1  ZINC000632456679   -0.6300
      5 S5         -9.8097    0.2425   62.0568 S.o2    1  ZINC000632456679    2.4100
      6 C6         -9.2029    1.6001   63.0958 C.3     1  ZINC000632456679   -0.6600
      7 O7        -11.2252    0.1856   62.1675 O.2     1  ZINC000632456679   -0.9300
      8 O8         -9.0444   -0.9209   62.3396 O.2     1  ZINC000632456679   -0.9300
      9 N9         -9.3427    0.0237   58.0822 N.am    1  ZINC000632456679   -0.7200
     10 C10        -9.0763    1.2269   57.5366 C.2     1  ZINC000632456679    0.6200
     11 O11        -9.4411    2.2425   58.0967 O.2     1  ZINC000632456679   -0.5000
     12 C12        -8.3421    1.3117   56.2598 C.2     1  ZINC000632456679   -0.0900
     13 C13        -7.7962    2.4329   55.7019 C.2     1  ZINC000632456679   -0.1300
     14 C14        -7.2153    1.9615   54.4925 C.2     1  ZINC000632456679    0.0400
     15 C15        -6.4816    2.7667   53.4847 C.ar    1  ZINC000632456679   -0.0500
     16 C16        -5.3932    3.5461   53.8702 C.ar    1  ZINC000632456679   -0.0600
     17 C17        -4.7139    4.2934   52.9293 C.ar    1  ZINC000632456679   -0.1100
     18 C18        -5.1109    4.2711   51.6046 C.ar    1  ZINC000632456679   -0.0700
     19 C19        -6.1909    3.4996   51.2132 C.ar    1  ZINC000632456679   -0.0800
     20 Cl20       -6.6827    3.4774   49.5485 Cl      1  ZINC000632456679   -0.0400
     21 C21        -6.8758    2.7415   52.1464 C.ar    1  ZINC000632456679    0.1400
     22 F22        -7.9301    1.9878   51.7649 F       1  ZINC000632456679   -0.1100
     23 N23        -7.4561    0.6752   54.4459 N.2     1  ZINC000632456679   -0.3200
     24 O24        -8.0717    0.2983   55.4155 O.3     1  ZINC000632456679    0.1400
     25 H25       -10.5675   -2.1412   59.0972 H       1  ZINC000632456679    0.0900
     26 H26        -9.0525   -1.8501   59.9851 H       1  ZINC000632456679    0.0600
     27 H27       -10.6191   -1.5731   60.7833 H       1  ZINC000632456679    0.0700
     28 H28       -12.0508    0.3537   60.0902 H       1  ZINC000632456679    0.0800
     29 H29       -11.5040    1.4494   58.7984 H       1  ZINC000632456679    0.0800
     30 H30       -11.9991   -0.2144   58.4041 H       1  ZINC000632456679    0.0900
     31 H31        -8.3028    0.7748   60.2561 H       1  ZINC000632456679    0.1600
     32 H32        -9.7173    1.8550   60.2714 H       1  ZINC000632456679    0.1400
     33 H33        -9.7133    2.5234   62.8218 H       1  ZINC000632456679    0.1300
     34 H34        -9.4010    1.3725   64.1433 H       1  ZINC000632456679    0.1300
     35 H35        -8.1299    1.7201   62.9468 H       1  ZINC000632456679    0.1300
     36 H36        -9.0527   -0.7867   57.6347 H       1  ZINC000632456679    0.4200
     37 H37        -7.8045    3.4413   56.0886 H       1  ZINC000632456679    0.1900
     38 H38        -5.0815    3.5658   54.9040 H       1  ZINC000632456679    0.1500
     39 H39        -3.8701    4.8975   53.2285 H       1  ZINC000632456679    0.1500
     40 H40        -4.5761    4.8584   50.8729 H       1  ZINC000632456679    0.1500
@<TRIPOS>BOND
     1     1     2    1
     2     1    25    1
     3     1    26    1
     4     1    27    1
     5     2     3    1
     6     2     4    1
     7     2     9    1
     8     3    28    1
     9     3    29    1
    10     3    30    1
    11     4     5    1
    12     4    31    1
    13     4    32    1
    14     5     6    1
    15     5     7    2
    16     5     8    2
    17     6    33    1
    18     6    34    1
    19     6    35    1
    20     9    10   am
    21     9    36    1
    22    10    11    2
    23    10    12    1
    24    12    24    1
    25    12    13    2
    26    13    14    1
    27    13    37    1
    28    14    15    1
    29    14    23    2
    30    15    21   ar
    31    15    16   ar
    32    16    17   ar
    33    16    38    1
    34    17    18   ar
    35    17    39    1
    36    18    19   ar
    37    18    40    1
    38    19    20    1
    39    19    21   ar
    40    21    22    1
    41    23    24    1
@<TRIPOS>SUBSTRUCTURE
     1 ZINC000632456679        1 TEMP              0 ****  ****    0 ROOT


##########                                Name:    ZINC000560467340
##########                DOCK_Rotatable_Bonds:                   7
##########                         Heavy_Atoms:                  24
##########                    Molecular_Weight:             369.481
##########                DOCK_Rotatable_Bonds:                   7
##########                       Formal_Charge:          -0.0199997
##########                     HBond_Acceptors:                   7
##########                        HBond_Donors:                   2
##########                         Heavy_Atoms:                  24
##########                          Grid_Score:          -25.859690
##########                     Grid_vdw_energy:          -24.882574
##########                      Grid_es_energy:           -0.977116
##########           Internal_energy_repulsive:           18.438097

@<TRIPOS>MOLECULE
ZINC000560467340
 44 46 1 0 0
SMALL
USER_CHARGES


@<TRIPOS>ATOM
      1 O1         -9.3691    1.0803   53.0102 O.2     1  ZINC000560467340   -0.9600
      2 S2         -8.0700    1.1043   53.5857 S.o2    1  ZINC000560467340    2.7100
      3 O3         -7.1188    0.0650   53.4011 O.2     1  ZINC000560467340   -0.9500
      4 N4         -7.3492    2.4977   53.0550 N.am    1  ZINC000560467340   -1.0900
      5 C5         -7.0285    2.6616   51.6350 C.3     1  ZINC000560467340    0.1400
      6 C6         -7.4718    4.0498   51.1689 C.3     1  ZINC000560467340   -0.0500
      7 C7         -6.7440    5.1293   51.9724 C.3     1  ZINC000560467340   -0.0700
      8 C8         -5.3431    4.6671   52.2808 C.ar    1  ZINC000560467340   -0.0900
      9 C9         -5.0104    4.2805   53.5657 C.ar    1  ZINC000560467340   -0.0900
     10 C10        -3.7261    3.8565   53.8496 C.ar    1  ZINC000560467340   -0.1500
     11 C11        -2.7724    3.8187   52.8464 C.ar    1  ZINC000560467340    0.1000
     12 F12        -1.5168    3.4039   53.1227 F       1  ZINC000560467340   -0.1400
     13 C13        -3.1069    4.2057   51.5598 C.ar    1  ZINC000560467340   -0.1500
     14 C14        -4.3933    4.6247   51.2772 C.ar    1  ZINC000560467340   -0.0900
     15 C15        -8.9976    4.2018   51.3384 C.3     1  ZINC000560467340   -0.1300
     16 C16        -9.4358    5.0314   50.1060 C.3     1  ZINC000560467340   -0.1200
     17 C17        -8.5339    4.4711   48.9784 C.3     1  ZINC000560467340   -0.1600
     18 C18        -7.1771    4.2209   49.6684 C.3     1  ZINC000560467340    0.1100
     19 H19        -6.5162    5.0736   49.5126 H       1  ZINC000560467340    0.0600
     20 O20        -6.5748    3.0339   49.1483 O.3     1  ZINC000560467340   -0.5500
     21 C21        -8.2995    1.2657   55.3252 C.2     1  ZINC000560467340   -0.6900
     22 C22        -9.2801    0.6424   55.9804 C.2     1  ZINC000560467340   -0.1000
     23 S23        -9.1926    1.0407   57.6913 S.3     1  ZINC000560467340    0.1500
     24 C24        -7.7877    2.0616   57.4123 C.2     1  ZINC000560467340   -0.2200
     25 C25        -7.4724    2.0442   56.1164 C.2     1  ZINC000560467340   -0.0700
     26 H26        -7.1395    3.2053   53.6844 H       1  ZINC000560467340    0.4200
     27 H27        -5.9532    2.5561   51.4909 H       1  ZINC000560467340    0.0600
     28 H28        -7.5493    1.8999   51.0547 H       1  ZINC000560467340    0.0800
     29 H29        -6.7030    6.0499   51.3904 H       1  ZINC000560467340    0.0800
     30 H30        -7.2796    5.3118   52.9040 H       1  ZINC000560467340    0.0800
     31 H31        -5.7544    4.3101   54.3479 H       1  ZINC000560467340    0.1300
     32 H32        -3.4662    3.5552   54.8536 H       1  ZINC000560467340    0.1400
     33 H33        -2.3639    4.1769   50.7766 H       1  ZINC000560467340    0.1400
     34 H34        -4.6545    4.9264   50.2736 H       1  ZINC000560467340    0.1300
     35 H35        -9.4813    3.2250   51.3322 H       1  ZINC000560467340    0.0700
     36 H36        -9.2277    4.7367   52.2598 H       1  ZINC000560467340    0.0800
     37 H37       -10.4883    4.8606   49.8798 H       1  ZINC000560467340    0.0700
     38 H38        -9.2412    6.0920   50.2653 H       1  ZINC000560467340    0.0700
     39 H39        -8.9428    3.5378   48.5912 H       1  ZINC000560467340    0.0800
     40 H40        -8.4256    5.2025   48.1775 H       1  ZINC000560467340    0.0700
     41 H41        -7.1974    2.4347   48.7143 H       1  ZINC000560467340    0.3800
     42 H42       -10.0155   -0.0072   55.5292 H       1  ZINC000560467340    0.1800
     43 H43        -7.2585    2.6141   58.1745 H       1  ZINC000560467340    0.1700
     44 H44        -6.6397    2.6017   55.7136 H       1  ZINC000560467340    0.1500
@<TRIPOS>BOND
     1     1     2    2
     2     2     3    2
     3     2     4   am
     4     2    21    1
     5     4     5    1
     6     4    26    1
     7     5     6    1
     8     5    27    1
     9     5    28    1
    10     6    18    1
    11     6     7    1
    12     6    15    1
    13     7     8    1
    14     7    29    1
    15     7    30    1
    16     8    14   ar
    17     8     9   ar
    18     9    10   ar
    19     9    31    1
    20    10    11   ar
    21    10    32    1
    22    11    12    1
    23    11    13   ar
    24    13    14   ar
    25    13    33    1
    26    14    34    1
    27    15    16    1
    28    15    35    1
    29    15    36    1
    30    16    17    1
    31    16    37    1
    32    16    38    1
    33    17    18    1
    34    17    39    1
    35    17    40    1
    36    18    19    1
    37    18    20    1
    38    20    41    1
    39    21    25    1
    40    21    22    2
    41    22    23    1
    42    22    42    1
    43    23    24    1
    44    24    25    2
    45    24    43    1
    46    25    44    1
@<TRIPOS>SUBSTRUCTURE
     1 ZINC000560467340        1 TEMP              0 ****  ****    0 ROOT


##########                                Name:    ZINC000450219577
##########                DOCK_Rotatable_Bonds:                   8
##########                         Heavy_Atoms:                  26
##########                    Molecular_Weight:             353.421
##########                DOCK_Rotatable_Bonds:                   8
##########                       Formal_Charge:          -0.0199997
##########                     HBond_Acceptors:                   6
##########                        HBond_Donors:                   1
##########                         Heavy_Atoms:                  26
##########                          Grid_Score:          -25.849628
##########                     Grid_vdw_energy:          -25.528368
##########                      Grid_es_energy:           -0.321260
##########           Internal_energy_repulsive:           33.826992

@<TRIPOS>MOLECULE
ZINC000450219577
 49 51 1 0 0
SMALL
USER_CHARGES


@<TRIPOS>ATOM
      1 C1         -1.1697    3.9976   55.6384 C.3     1  ZINC000450219577   -0.1800
      2 C2          0.0013    4.1282   56.6145 C.3     1  ZINC000450219577    0.1200
      3 C3          0.1934    5.5998   56.9865 C.3     1  ZINC000450219577   -0.1800
      4 C4         -0.2950    3.3173   57.8776 C.3     1  ZINC000450219577   -0.1400
      5 O5          1.2111    3.6252   55.9890 O.3     1  ZINC000450219577   -0.3400
      6 C6          1.5339    4.1340   54.7896 C.2     1  ZINC000450219577    0.4700
      7 O7          0.9904    5.1377   54.3931 O.2     1  ZINC000450219577   -0.5000
      8 C8          2.5741    3.4535   53.9376 C.3     1  ZINC000450219577    0.2000
      9 H9          3.2573    2.8936   54.5762 H       1  ZINC000450219577    0.1400
     10 N10         1.9165    2.5362   53.0036 N.am    1  ZINC000450219577   -0.7100
     11 C11         2.6347    1.5842   52.3757 C.2     1  ZINC000450219577    0.5800
     12 O12         3.8285    1.4877   52.5831 O.2     1  ZINC000450219577   -0.5200
     13 C13         1.9708    0.6574   51.4346 C.ar    1  ZINC000450219577   -0.2500
     14 C14         2.2550   -0.7128   51.4534 C.ar    1  ZINC000450219577    0.1900
     15 N15         1.6380   -1.5053   50.5945 N.ar    1  ZINC000450219577   -0.5100
     16 C16         0.7672   -1.0221   49.7302 C.ar    1  ZINC000450219577    0.3800
     17 C17         0.0900   -1.9670   48.7713 C.3     1  ZINC000450219577   -0.1100
     18 C18        -1.2396   -2.5848   49.2088 C.3     1  ZINC000450219577   -0.1500
     19 C19        -1.2181   -1.5028   48.1274 C.3     1  ZINC000450219577   -0.1500
     20 N20         0.4697    0.2616   49.6785 N.ar    1  ZINC000450219577   -0.5200
     21 C21         1.0359    1.1245   50.5038 C.ar    1  ZINC000450219577    0.2200
     22 C22         3.3462    4.4905   53.1632 C.ar    1  ZINC000450219577   -0.1100
     23 C23         4.4757    5.0657   53.7146 C.ar    1  ZINC000450219577   -0.1000
     24 C24         5.1839    6.0168   53.0043 C.ar    1  ZINC000450219577   -0.1200
     25 C25         4.7628    6.3925   51.7424 C.ar    1  ZINC000450219577   -0.1100
     26 C26         3.6338    5.8167   51.1906 C.ar    1  ZINC000450219577   -0.1200
     27 C27         2.9280    4.8624   51.8992 C.ar    1  ZINC000450219577   -0.0800
     28 H28        -0.9588    4.5753   54.7385 H       1  ZINC000450219577    0.0800
     29 H29        -1.3066    2.9492   55.3735 H       1  ZINC000450219577    0.0600
     30 H30        -2.0780    4.3752   56.1080 H       1  ZINC000450219577    0.0700
     31 H31        -0.7149    5.9774   57.4561 H       1  ZINC000450219577    0.0700
     32 H32         1.0275    5.6928   57.6820 H       1  ZINC000450219577    0.0600
     33 H33         0.4043    6.1775   56.0867 H       1  ZINC000450219577    0.0800
     34 H34        -0.4318    2.2689   57.6127 H       1  ZINC000450219577    0.0700
     35 H35         0.5392    3.4103   58.5730 H       1  ZINC000450219577    0.0700
     36 H36        -1.2033    3.6949   58.3472 H       1  ZINC000450219577    0.0800
     37 H37         0.9640    2.6138   52.8371 H       1  ZINC000450219577    0.4100
     38 H38         2.9672   -1.1159   52.1580 H       1  ZINC000450219577    0.1700
     39 H39         0.7571   -2.5827   48.1680 H       1  ZINC000450219577    0.1300
     40 H40        -1.4473   -3.6075   48.8935 H       1  ZINC000450219577    0.1000
     41 H41        -1.6244   -2.3079   50.1903 H       1  ZINC000450219577    0.1100
     42 H42        -1.5888   -0.5140   48.3973 H       1  ZINC000450219577    0.1000
     43 H43        -1.4116   -1.8134   47.1006 H       1  ZINC000450219577    0.1100
     44 H44         0.7872    2.1743   50.4554 H       1  ZINC000450219577    0.1800
     45 H45         4.8048    4.7722   54.7005 H       1  ZINC000450219577    0.1200
     46 H46         6.0660    6.4668   53.4354 H       1  ZINC000450219577    0.1200
     47 H47         5.3158    7.1362   51.1878 H       1  ZINC000450219577    0.1300
     48 H48         3.3046    6.1105   50.2049 H       1  ZINC000450219577    0.1300
     49 H49         2.0459    4.4125   51.4682 H       1  ZINC000450219577    0.1300
@<TRIPOS>BOND
     1     1     2    1
     2     1    28    1
     3     1    29    1
     4     1    30    1
     5     2     3    1
     6     2     4    1
     7     2     5    1
     8     3    31    1
     9     3    32    1
    10     3    33    1
    11     4    34    1
    12     4    35    1
    13     4    36    1
    14     5     6    1
    15     6     7    2
    16     6     8    1
    17     8     9    1
    18     8    10    1
    19     8    22    1
    20    10    11   am
    21    10    37    1
    22    11    12    2
    23    11    13    1
    24    13    21   ar
    25    13    14   ar
    26    14    15   ar
    27    14    38    1
    28    15    16   ar
    29    16    17    1
    30    16    20   ar
    31    17    19    1
    32    17    18    1
    33    17    39    1
    34    18    19    1
    35    18    40    1
    36    18    41    1
    37    19    42    1
    38    19    43    1
    39    20    21   ar
    40    21    44    1
    41    22    27   ar
    42    22    23   ar
    43    23    24   ar
    44    23    45    1
    45    24    25   ar
    46    24    46    1
    47    25    26   ar
    48    25    47    1
    49    26    27   ar
    50    26    48    1
    51    27    49    1
@<TRIPOS>SUBSTRUCTURE
     1 ZINC000450219577        1 TEMP              0 ****  ****    0 ROOT


##########                                Name:    ZINC000154446008
##########                DOCK_Rotatable_Bonds:                   5
##########                         Heavy_Atoms:                  24
##########                    Molecular_Weight:              349.41
##########                DOCK_Rotatable_Bonds:                   5
##########                       Formal_Charge:          -0.0199999
##########                     HBond_Acceptors:                   8
##########                        HBond_Donors:                   0
##########                         Heavy_Atoms:                  24
##########                          Grid_Score:          -25.824863
##########                     Grid_vdw_energy:          -25.212395
##########                      Grid_es_energy:           -0.612469
##########           Internal_energy_repulsive:           13.432291

@<TRIPOS>MOLECULE
ZINC000154446008
 43 45 1 0 0
SMALL
USER_CHARGES


@<TRIPOS>ATOM
      1 O1         -9.6178    3.4801   57.1091 O.2     1  ZINC000154446008   -0.5000
      2 C2         -9.2086    2.3392   57.2191 C.2     1  ZINC000154446008    0.5900
      3 C3         -8.9075    1.5499   56.0212 C.2     1  ZINC000154446008   -0.2300
      4 C4         -7.6913    1.4817   55.4018 C.2     1  ZINC000154446008   -0.0600
      5 C5         -7.6892    0.6644   54.2965 C.2     1  ZINC000154446008   -0.0500
      6 C6         -8.8617    0.0824   54.0186 C.2     1  ZINC000154446008   -0.2100
      7 N7         -9.0941   -0.8348   52.8801 N.pl3   1  ZINC000154446008    0.0500
      8 O8        -10.1808   -1.3663   52.7384 O.2     1  ZINC000154446008   -0.1300
      9 O9         -8.1986   -1.0580   52.0853 O.2     1  ZINC000154446008   -0.1500
     10 S10       -10.0513    0.5330   55.1556 S.3     1  ZINC000154446008    0.3500
     11 N11        -9.0271    1.8034   58.4425 N.am    1  ZINC000154446008   -0.6100
     12 C12        -9.3307    2.5810   59.6520 C.3     1  ZINC000154446008    0.0800
     13 C13       -10.3211    1.7848   60.5107 C.3     1  ZINC000154446008    0.0900
     14 N14        -9.8167    0.4125   60.6589 N.am    1  ZINC000154446008   -0.6100
     15 C15        -9.6360   -0.1235   61.8823 C.2     1  ZINC000154446008    0.5500
     16 O16        -9.2178   -1.2603   61.9924 O.2     1  ZINC000154446008   -0.5300
     17 C17        -9.9445    0.6664   63.0843 C.2     1  ZINC000154446008   -0.1500
     18 C18       -11.2064    0.7989   63.4317 C.2     1  ZINC000154446008   -0.1100
     19 C19       -11.6655    1.5827   64.6265 C.3     1  ZINC000154446008   -0.1000
     20 C20       -10.4939    1.8222   65.5811 C.3     1  ZINC000154446008   -0.1200
     21 C21        -9.3133    2.3758   64.7737 C.3     1  ZINC000154446008   -0.1200
     22 C22        -8.8011    1.2693   63.8469 C.3     1  ZINC000154446008   -0.0700
     23 C23        -9.5131   -0.3651   59.4494 C.3     1  ZINC000154446008    0.1000
     24 C24        -8.5279    0.4291   58.5906 C.3     1  ZINC000154446008    0.1000
     25 H25        -6.8188    2.0168   55.7464 H       1  ZINC000154446008    0.1800
     26 H26        -6.8059    0.5040   53.6961 H       1  ZINC000154446008    0.1800
     27 H27        -8.4139    2.7533   60.2159 H       1  ZINC000154446008    0.0900
     28 H28        -9.7752    3.5358   59.3711 H       1  ZINC000154446008    0.0900
     29 H29       -10.4103    2.2498   61.4925 H       1  ZINC000154446008    0.1100
     30 H30       -11.2955    1.7657   60.0224 H       1  ZINC000154446008    0.0800
     31 H31       -11.9555    0.3161   62.8216 H       1  ZINC000154446008    0.1100
     32 H32       -12.0653    2.5419   64.2976 H       1  ZINC000154446008    0.0900
     33 H33       -12.4464    1.0266   65.1453 H       1  ZINC000154446008    0.0800
     34 H34       -10.7853    2.5431   66.3449 H       1  ZINC000154446008    0.0700
     35 H35       -10.2069    0.8818   66.0517 H       1  ZINC000154446008    0.0700
     36 H36        -9.6426    3.2300   64.1822 H       1  ZINC000154446008    0.0700
     37 H37        -8.5170    2.6817   65.4522 H       1  ZINC000154446008    0.0700
     38 H38        -8.3096    0.4990   64.4411 H       1  ZINC000154446008    0.0800
     39 H39        -8.0845    1.6912   63.1421 H       1  ZINC000154446008    0.0700
     40 H40        -9.0686   -1.3199   59.7302 H       1  ZINC000154446008    0.1100
     41 H41       -10.4299   -0.5373   58.8855 H       1  ZINC000154446008    0.0800
     42 H42        -8.4397   -0.0369   57.6093 H       1  ZINC000154446008    0.1100
     43 H43        -7.5529    0.4502   59.0772 H       1  ZINC000154446008    0.0800
@<TRIPOS>BOND
     1     1     2    2
     2     2     3    1
     3     2    11   am
     4     3    10    1
     5     3     4    2
     6     4     5    1
     7     4    25    1
     8     5     6    2
     9     5    26    1
    10     6     7    1
    11     6    10    1
    12     7     8    2
    13     7     9    2
    14    11    24    1
    15    11    12    1
    16    12    13    1
    17    12    27    1
    18    12    28    1
    19    13    14    1
    20    13    29    1
    21    13    30    1
    22    14    15   am
    23    14    23    1
    24    15    16    2
    25    15    17    1
    26    17    22    1
    27    17    18    2
    28    18    19    1
    29    18    31    1
    30    19    20    1
    31    19    32    1
    32    19    33    1
    33    20    21    1
    34    20    34    1
    35    20    35    1
    36    21    22    1
    37    21    36    1
    38    21    37    1
    39    22    38    1
    40    22    39    1
    41    23    24    1
    42    23    40    1
    43    23    41    1
    44    24    42    1
    45    24    43    1
@<TRIPOS>SUBSTRUCTURE
     1 ZINC000154446008        1 TEMP              0 ****  ****    0 ROOT


##########                                Name:    ZINC000337709254
##########                DOCK_Rotatable_Bonds:                   7
##########                         Heavy_Atoms:                  22
##########                    Molecular_Weight:              329.42
##########                DOCK_Rotatable_Bonds:                   7
##########                       Formal_Charge:           0.0300004
##########                     HBond_Acceptors:                   8
##########                        HBond_Donors:                   2
##########                         Heavy_Atoms:                  22
##########                          Grid_Score:          -25.735886
##########                     Grid_vdw_energy:          -24.276955
##########                      Grid_es_energy:           -1.458932
##########           Internal_energy_repulsive:           13.916154

@<TRIPOS>MOLECULE
ZINC000337709254
 45 46 1 0 0
SMALL
USER_CHARGES


@<TRIPOS>ATOM
      1 C1         -5.0830    3.3366   53.0073 C.3     1  ZINC000337709254   -0.6700
      2 S2         -6.7537    3.2273   53.7054 S.o2    1  ZINC000337709254    2.6100
      3 O3         -6.8618    4.0359   54.8689 O.2     1  ZINC000337709254   -0.9500
      4 O4         -7.7300    3.2922   52.6748 O.2     1  ZINC000337709254   -0.9500
      5 N5         -6.8631    1.6760   54.2744 N.am    1  ZINC000337709254   -1.1200
      6 C6         -8.0966    1.2172   54.9180 C.3     1  ZINC000337709254    0.1200
      7 C7         -9.1307    0.8657   53.8464 C.3     1  ZINC000337709254   -0.1100
      8 H8         -9.3015    1.7178   53.1884 H       1  ZINC000337709254    0.1100
      9 C9         -8.6674   -0.3659   53.0293 C.3     1  ZINC000337709254   -0.1200
     10 C10        -9.9994   -0.9279   52.4734 C.3     1  ZINC000337709254   -0.1200
     11 C11       -11.0044   -0.7294   53.6269 C.3     1  ZINC000337709254   -0.1400
     12 C12       -10.4533    0.4144   54.4998 C.3     1  ZINC000337709254    0.1500
     13 H13       -11.1632    1.2412   54.5237 H       1  ZINC000337709254    0.1000
     14 N14       -10.2006   -0.0690   55.8594 N.am    1  ZINC000337709254   -0.7200
     15 C15       -11.0026    0.3161   56.8716 C.2     1  ZINC000337709254    0.5300
     16 O16       -11.9348    1.0618   56.6566 O.2     1  ZINC000337709254   -0.5100
     17 C17       -10.7416   -0.1797   58.2705 C.3     1  ZINC000337709254    0.0200
     18 C18       -11.7363    0.3954   59.1905 C.1     1  ZINC000337709254    0.2000
     19 N19       -12.5041    0.8392   59.9005 N.1     1  ZINC000337709254   -0.3900
     20 C20       -10.8382   -1.7081   58.2987 C.3     1  ZINC000337709254   -0.1500
     21 C21       -10.4946   -2.2076   59.7044 C.3     1  ZINC000337709254    0.0600
     22 O22        -9.1867   -1.7565   60.0623 O.3     1  ZINC000337709254   -0.3700
     23 C23        -9.0495   -0.3346   60.0989 C.3     1  ZINC000337709254    0.0600
     24 C24        -9.3352    0.2402   58.7089 C.3     1  ZINC000337709254   -0.1300
     25 H25        -4.3492    3.1369   53.7881 H       1  ZINC000337709254    0.1300
     26 H26        -4.9738    2.6019   52.2095 H       1  ZINC000337709254    0.1300
     27 H27        -4.9221    4.3367   52.6046 H       1  ZINC000337709254    0.1300
     28 H28        -6.1105    1.0712   54.1816 H       1  ZINC000337709254    0.4200
     29 H29        -7.8850    0.3349   55.5218 H       1  ZINC000337709254    0.0600
     30 H30        -8.4895    2.0086   55.5563 H       1  ZINC000337709254    0.0900
     31 H31        -8.0065   -0.0640   52.2168 H       1  ZINC000337709254    0.0800
     32 H32        -8.1794   -1.0962   53.6747 H       1  ZINC000337709254    0.0700
     33 H33       -10.3128   -0.3663   51.5934 H       1  ZINC000337709254    0.0700
     34 H34        -9.8967   -1.9865   52.2348 H       1  ZINC000337709254    0.0700
     35 H35       -11.9810   -0.4550   53.2280 H       1  ZINC000337709254    0.0800
     36 H36       -11.0842   -1.6441   54.2141 H       1  ZINC000337709254    0.0700
     37 H37        -9.4557   -0.6663   56.0311 H       1  ZINC000337709254    0.4000
     38 H38       -11.8524   -2.0138   58.0414 H       1  ZINC000337709254    0.0900
     39 H39       -10.1361   -2.1309   57.5802 H       1  ZINC000337709254    0.1100
     40 H40       -11.2213   -1.8170   60.4168 H       1  ZINC000337709254    0.0500
     41 H41       -10.5201   -3.2972   59.7195 H       1  ZINC000337709254    0.1100
     42 H42        -9.7574    0.0806   60.8163 H       1  ZINC000337709254    0.0500
     43 H43        -8.0341   -0.0748   60.3979 H       1  ZINC000337709254    0.1100
     44 H44        -8.6026   -0.1433   57.9987 H       1  ZINC000337709254    0.1100
     45 H45        -9.2744    1.3278   58.7449 H       1  ZINC000337709254    0.0900
@<TRIPOS>BOND
     1     1     2    1
     2     1    25    1
     3     1    26    1
     4     1    27    1
     5     2     3    2
     6     2     4    2
     7     2     5   am
     8     5     6    1
     9     5    28    1
    10     6     7    1
    11     6    29    1
    12     6    30    1
    13     7     8    1
    14     7    12    1
    15     7     9    1
    16     9    10    1
    17     9    31    1
    18     9    32    1
    19    10    11    1
    20    10    33    1
    21    10    34    1
    22    11    12    1
    23    11    35    1
    24    11    36    1
    25    12    13    1
    26    12    14    1
    27    14    15   am
    28    14    37    1
    29    15    16    2
    30    15    17    1
    31    17    24    1
    32    17    18    1
    33    17    20    1
    34    18    19    3
    35    20    21    1
    36    20    38    1
    37    20    39    1
    38    21    22    1
    39    21    40    1
    40    21    41    1
    41    22    23    1
    42    23    24    1
    43    23    42    1
    44    23    43    1
    45    24    44    1
    46    24    45    1
@<TRIPOS>SUBSTRUCTURE
     1 ZINC000337709254        1 TEMP              0 ****  ****    0 ROOT


##########                                Name:    ZINC000986832075
##########                DOCK_Rotatable_Bonds:                   7
##########                         Heavy_Atoms:                  25
##########                    Molecular_Weight:             347.433
##########                DOCK_Rotatable_Bonds:                   7
##########                       Formal_Charge:          -0.0200006
##########                     HBond_Acceptors:                   6
##########                        HBond_Donors:                   1
##########                         Heavy_Atoms:                  25
##########                          Grid_Score:          -25.697121
##########                     Grid_vdw_energy:          -25.822208
##########                      Grid_es_energy:            0.125089
##########           Internal_energy_repulsive:           31.717466

@<TRIPOS>MOLECULE
ZINC000986832075
 51 53 1 0 0
SMALL
USER_CHARGES


@<TRIPOS>ATOM
      1 C1         -8.7009   -0.1483   62.5198 C.3     1  ZINC000986832075   -0.1700
      2 C2         -9.7280    0.2453   61.4563 C.3     1  ZINC000986832075    0.1500
      3 H3        -10.4826    0.8932   61.9021 H       1  ZINC000986832075    0.0900
      4 N4         -9.0549    0.9572   60.3671 N.am    1  ZINC000986832075   -0.7200
      5 C5         -9.1461    2.2991   60.2815 C.2     1  ZINC000986832075    0.5600
      6 O6         -9.7854    2.9188   61.1086 O.2     1  ZINC000986832075   -0.5100
      7 C7         -8.4675    3.0180   59.1801 C.ar    1  ZINC000986832075   -0.1300
      8 C8         -8.5452    4.4105   59.0749 C.ar    1  ZINC000986832075   -0.1100
      9 C9         -7.8968    5.0409   58.0313 C.ar    1  ZINC000986832075    0.0900
     10 N10        -7.2122    4.3501   57.1414 N.ar    1  ZINC000986832075   -0.4400
     11 C11        -7.1117    3.0377   57.2006 C.ar    1  ZINC000986832075    0.0700
     12 C12        -7.7245    2.3236   58.2167 C.ar    1  ZINC000986832075    0.1100
     13 F13        -7.6172    0.9780   58.2712 F       1  ZINC000986832075   -0.1000
     14 C14       -10.3990   -1.0142   60.9044 C.3     1  ZINC000986832075   -0.1000
     15 C15       -11.9102   -0.7895   60.8158 C.3     1  ZINC000986832075   -0.1300
     16 C16       -12.5823   -2.0641   60.2955 C.3     1  ZINC000986832075    0.1100
     17 N17       -11.9532   -2.4450   59.0237 N.am    1  ZINC000986832075   -0.6100
     18 C18       -12.7014   -2.6489   57.9214 C.2     1  ZINC000986832075    0.5200
     19 O19       -12.1702   -2.9630   56.8774 O.2     1  ZINC000986832075   -0.5300
     20 C20       -14.1982   -2.4866   57.9862 C.3     1  ZINC000986832075   -0.0800
     21 H21       -14.4413   -1.5680   58.5202 H       1  ZINC000986832075    0.0900
     22 C22       -14.8095   -3.6810   58.7215 C.3     1  ZINC000986832075   -0.1400
     23 C23       -14.7656   -2.4167   56.5669 C.3     1  ZINC000986832075   -0.1400
     24 C24       -15.6943   -1.2472   56.2342 C.3     1  ZINC000986832075   -0.1800
     25 C25       -14.2745   -1.2826   55.6649 C.3     1  ZINC000986832075   -0.1700
     26 C26       -10.4928   -2.5992   58.9761 C.3     1  ZINC000986832075    0.1000
     27 C27        -9.8442   -1.3186   59.5110 C.3     1  ZINC000986832075   -0.1300
     28 H28        -8.2230    0.7490   62.9130 H       1  ZINC000986832075    0.0600
     29 H29        -9.2018   -0.6780   63.3302 H       1  ZINC000986832075    0.0700
     30 H30        -7.9464   -0.7964   62.0740 H       1  ZINC000986832075    0.0600
     31 H31        -8.5435    0.4627   59.7076 H       1  ZINC000986832075    0.4000
     32 H32        -9.1043    4.9843   59.7992 H       1  ZINC000986832075    0.1500
     33 H33        -7.9516    6.1159   57.9428 H       1  ZINC000986832075    0.1700
     34 H34        -6.5405    2.5125   56.4493 H       1  ZINC000986832075    0.1800
     35 H35       -10.1954   -1.8547   61.5680 H       1  ZINC000986832075    0.0800
     36 H36       -12.3011   -0.5497   61.8046 H       1  ZINC000986832075    0.0700
     37 H37       -12.1160    0.0349   60.1330 H       1  ZINC000986832075    0.0800
     38 H38       -12.4542   -2.8670   61.0214 H       1  ZINC000986832075    0.0700
     39 H39       -13.6445   -1.8784   60.1366 H       1  ZINC000986832075    0.0900
     40 H40       -14.4932   -4.6056   58.2385 H       1  ZINC000986832075    0.0600
     41 H41       -14.4739   -3.6797   59.7586 H       1  ZINC000986832075    0.0600
     42 H42       -15.8967   -3.6087   58.6912 H       1  ZINC000986832075    0.0700
     43 H43       -14.9775   -3.3774   56.0975 H       1  ZINC000986832075    0.1100
     44 H44       -16.5175   -1.4384   55.5458 H       1  ZINC000986832075    0.1000
     45 H45       -15.9011   -0.5276   57.0263 H       1  ZINC000986832075    0.0900
     46 H46       -13.5474   -0.5863   56.0826 H       1  ZINC000986832075    0.0900
     47 H47       -14.1638   -1.4971   54.6020 H       1  ZINC000986832075    0.1000
     48 H48       -10.1943   -3.4457   59.5944 H       1  ZINC000986832075    0.0700
     49 H49       -10.1763   -2.7664   57.9465 H       1  ZINC000986832075    0.0900
     50 H50       -10.0694   -0.4892   58.8406 H       1  ZINC000986832075    0.0800
     51 H51        -8.7645   -1.4554   59.5713 H       1  ZINC000986832075    0.0800
@<TRIPOS>BOND
     1     1     2    1
     2     1    28    1
     3     1    29    1
     4     1    30    1
     5     2     3    1
     6     2     4    1
     7     2    14    1
     8     4     5   am
     9     4    31    1
    10     5     6    2
    11     5     7    1
    12     7    12   ar
    13     7     8   ar
    14     8     9   ar
    15     8    32    1
    16     9    10   ar
    17     9    33    1
    18    10    11   ar
    19    11    12   ar
    20    11    34    1
    21    12    13    1
    22    14    27    1
    23    14    15    1
    24    14    35    1
    25    15    16    1
    26    15    36    1
    27    15    37    1
    28    16    17    1
    29    16    38    1
    30    16    39    1
    31    17    18   am
    32    17    26    1
    33    18    19    2
    34    18    20    1
    35    20    21    1
    36    20    22    1
    37    20    23    1
    38    22    40    1
    39    22    41    1
    40    22    42    1
    41    23    25    1
    42    23    24    1
    43    23    43    1
    44    24    25    1
    45    24    44    1
    46    24    45    1
    47    25    46    1
    48    25    47    1
    49    26    27    1
    50    26    48    1
    51    26    49    1
    52    27    50    1
    53    27    51    1
@<TRIPOS>SUBSTRUCTURE
     1 ZINC000986832075        1 TEMP              0 ****  ****    0 ROOT


##########                                Name:    ZINC000942661662
##########                DOCK_Rotatable_Bonds:                   6
##########                         Heavy_Atoms:                  25
##########                    Molecular_Weight:             343.426
##########                DOCK_Rotatable_Bonds:                   6
##########                       Formal_Charge:           0.0399997
##########                     HBond_Acceptors:                   6
##########                        HBond_Donors:                   1
##########                         Heavy_Atoms:                  25
##########                          Grid_Score:          -25.647566
##########                     Grid_vdw_energy:          -24.516237
##########                      Grid_es_energy:           -1.131329
##########           Internal_energy_repulsive:           20.686789

@<TRIPOS>MOLECULE
ZINC000942661662
 50 52 1 0 0
SMALL
USER_CHARGES


@<TRIPOS>ATOM
      1 C1         -2.3855    4.1318   52.8517 C.3     1  ZINC000942661662   -0.1700
      2 C2         -1.3976    3.3025   53.6746 C.3     1  ZINC000942661662    0.1000
      3 N3         -0.1587    4.0620   53.8606 N.am    1  ZINC000942661662   -0.6000
      4 C4         -0.0503    4.9347   54.8818 C.2     1  ZINC000942661662    0.6000
      5 O5          0.9782    5.5652   55.0363 O.2     1  ZINC000942661662   -0.5200
      6 C6         -1.1780    5.1252   55.8114 C.2     1  ZINC000942661662   -0.2400
      7 C7         -1.9996    6.2107   55.8996 C.2     1  ZINC000942661662    0.0700
      8 C8         -1.9152    7.4517   55.0489 C.3     1  ZINC000942661662   -0.0900
      9 O9         -2.8921    5.9863   56.8688 O.3     1  ZINC000942661662   -0.1700
     10 C10        -2.6947    4.7847   57.4331 C.2     1  ZINC000942661662   -0.0300
     11 C11        -1.6564    4.1826   56.8331 C.2     1  ZINC000942661662   -0.1900
     12 C12         0.9623    3.8726   52.9366 C.3     1  ZINC000942661662    0.1400
     13 H13         1.8567    3.5528   53.4711 H       1  ZINC000942661662    0.1100
     14 C14         1.2340    5.1635   52.1199 C.3     1  ZINC000942661662   -0.1400
     15 C15         1.8828    4.6248   50.8275 C.3     1  ZINC000942661662    0.1000
     16 N16         1.4791    3.2178   50.6902 N.am    1  ZINC000942661662   -0.6200
     17 C17         1.8560    2.3856   49.6992 C.2     1  ZINC000942661662    0.6100
     18 O18         2.5943    2.7841   48.8178 O.2     1  ZINC000942661662   -0.5200
     19 C19         1.3761    0.9996   49.6831 C.2     1  ZINC000942661662   -0.0600
     20 C20         1.9555   -0.0709   50.3304 C.2     1  ZINC000942661662   -0.0700
     21 C21         3.1967   -0.0361   51.1843 C.3     1  ZINC000942661662   -0.0900
     22 C22         1.1740   -1.1951   50.0458 C.2     1  ZINC000942661662   -0.2100
     23 C23         0.1537   -0.8004   49.2472 C.2     1  ZINC000942661662    0.0500
     24 C24        -0.9292   -1.6955   48.7018 C.3     1  ZINC000942661662   -0.0900
     25 N25         0.2618    0.5320   49.0238 N.pl3   1  ZINC000942661662   -0.5400
     26 C26         0.5950    2.8668   51.8171 C.3     1  ZINC000942661662    0.0900
     27 H27        -3.3073    3.5668   52.7134 H       1  ZINC000942661662    0.0700
     28 H28        -2.6047    5.0617   53.3765 H       1  ZINC000942661662    0.0600
     29 H29        -1.9484    4.3579   51.8792 H       1  ZINC000942661662    0.0600
     30 H30        -1.8348    3.0765   54.6472 H       1  ZINC000942661662    0.0900
     31 H31        -1.1784    2.3726   53.1499 H       1  ZINC000942661662    0.0800
     32 H32        -2.5315    7.3245   54.1588 H       1  ZINC000942661662    0.0900
     33 H33        -2.2735    8.3084   55.6196 H       1  ZINC000942661662    0.0900
     34 H34        -0.8797    7.6195   54.7529 H       1  ZINC000942661662    0.1000
     35 H35        -3.2810    4.3669   58.2381 H       1  ZINC000942661662    0.2100
     36 H36        -1.2502    3.2079   57.0598 H       1  ZINC000942661662    0.1600
     37 H37         0.3015    5.6819   51.8962 H       1  ZINC000942661662    0.1000
     38 H38         1.9226    5.8192   52.6528 H       1  ZINC000942661662    0.0900
     39 H39         1.5303    5.1970   49.9693 H       1  ZINC000942661662    0.0700
     40 H40         2.9681    4.6935   50.9010 H       1  ZINC000942661662    0.0700
     41 H41         2.9200    0.1622   52.2198 H       1  ZINC000942661662    0.0700
     42 H42         3.7074   -0.9970   51.1224 H       1  ZINC000942661662    0.0600
     43 H43         3.8605    0.7519   50.8285 H       1  ZINC000942661662    0.0800
     44 H44         1.3527   -2.1998   50.3995 H       1  ZINC000942661662    0.1400
     45 H45        -1.7656   -1.7209   49.4003 H       1  ZINC000942661662    0.0800
     46 H46        -1.2698   -1.3096   47.7409 H       1  ZINC000942661662    0.0700
     47 H47        -0.5353   -2.7032   48.5697 H       1  ZINC000942661662    0.0900
     48 H48        -0.3421    1.0662   48.4846 H       1  ZINC000942661662    0.4100
     49 H49         0.7865    1.8453   52.1456 H       1  ZINC000942661662    0.0800
     50 H50        -0.4499    2.9843   51.5303 H       1  ZINC000942661662    0.1000
@<TRIPOS>BOND
     1     1     2    1
     2     1    27    1
     3     1    28    1
     4     1    29    1
     5     2     3    1
     6     2    30    1
     7     2    31    1
     8     3     4   am
     9     3    12    1
    10     4     5    2
    11     4     6    1
    12     6    11    1
    13     6     7    2
    14     7     8    1
    15     7     9    1
    16     8    32    1
    17     8    33    1
    18     8    34    1
    19     9    10    1
    20    10    11    2
    21    10    35    1
    22    11    36    1
    23    12    13    1
    24    12    26    1
    25    12    14    1
    26    14    15    1
    27    14    37    1
    28    14    38    1
    29    15    16    1
    30    15    39    1
    31    15    40    1
    32    16    17   am
    33    16    26    1
    34    17    18    2
    35    17    19    1
    36    19    25    1
    37    19    20    2
    38    20    21    1
    39    20    22    1
    40    21    41    1
    41    21    42    1
    42    21    43    1
    43    22    23    2
    44    22    44    1
    45    23    24    1
    46    23    25    1
    47    24    45    1
    48    24    46    1
    49    24    47    1
    50    25    48    1
    51    26    49    1
    52    26    50    1
@<TRIPOS>SUBSTRUCTURE
     1 ZINC000942661662        1 TEMP              0 ****  ****    0 ROOT


##########                                Name:    ZINC000956479608
##########                DOCK_Rotatable_Bonds:                   5
##########                         Heavy_Atoms:                  25
##########                    Molecular_Weight:             345.442
##########                DOCK_Rotatable_Bonds:                   5
##########                       Formal_Charge:          -0.0100001
##########                     HBond_Acceptors:                   6
##########                        HBond_Donors:                   1
##########                         Heavy_Atoms:                  25
##########                          Grid_Score:          -25.608400
##########                     Grid_vdw_energy:          -24.443272
##########                      Grid_es_energy:           -1.165129
##########           Internal_energy_repulsive:           31.930449

@<TRIPOS>MOLECULE
ZINC000956479608
 52 55 1 0 0
SMALL
USER_CHARGES


@<TRIPOS>ATOM
      1 C1         -8.7272    4.4583   49.8582 C.3     1  ZINC000956479608   -0.0900
      2 C2         -9.9213    4.4102   50.7763 C.2     1  ZINC000956479608   -0.1100
      3 C3        -10.1637    3.5356   51.8002 C.2     1  ZINC000956479608   -0.1000
      4 C4         -9.2976    2.4266   52.2427 C.2     1  ZINC000956479608    0.6100
      5 O5         -8.2186    2.2486   51.7113 O.2     1  ZINC000956479608   -0.5000
      6 N6         -9.7022    1.6107   53.2362 N.am    1  ZINC000956479608   -0.7100
      7 C7         -8.8428    0.5082   53.6745 C.3     1  ZINC000956479608    0.1800
      8 C8         -8.5548   -0.4158   52.4895 C.3     1  ZINC000956479608   -0.1700
      9 C9         -7.5258    1.0716   54.2132 C.3     1  ZINC000956479608   -0.1500
     10 C10        -7.8201    2.0228   55.3773 C.3     1  ZINC000956479608    0.1100
     11 N11        -8.6258    1.3103   56.3781 N.am    1  ZINC000956479608   -0.6100
     12 C12        -8.2335    1.2605   57.6666 C.2     1  ZINC000956479608    0.5500
     13 O13        -7.2072    1.8084   58.0096 O.2     1  ZINC000956479608   -0.5400
     14 C14        -9.0700    0.5242   58.6811 C.3     1  ZINC000956479608   -0.1900
     15 H15        -9.1747   -0.5480   58.5154 H       1  ZINC000956479608    0.1200
     16 C16        -9.0196    1.0124   60.1229 C.3     1  ZINC000956479608   -0.1100
     17 H17        -8.3844    1.8781   60.3108 H       1  ZINC000956479608    0.1000
     18 C18        -9.0773    0.0088   61.2640 C.3     1  ZINC000956479608   -0.0900
     19 C19       -10.2401   -0.9633   61.0642 C.3     1  ZINC000956479608   -0.1200
     20 C20       -11.5308   -0.1534   60.8963 C.3     1  ZINC000956479608   -0.1200
     21 C21       -11.5349    0.4732   59.5019 C.3     1  ZINC000956479608   -0.0900
     22 C22       -10.2681    1.2695   59.2894 C.3     1  ZINC000956479608   -0.1100
     23 H23       -10.4126    2.2998   58.9647 H       1  ZINC000956479608    0.1100
     24 C24        -9.8677    0.6536   55.9478 C.3     1  ZINC000956479608    0.1000
     25 C25        -9.5505   -0.2824   54.7774 C.3     1  ZINC000956479608   -0.1400
     26 O26       -11.3524    3.8921   52.3224 O.3     1  ZINC000956479608    0.1200
     27 N27       -11.8224    4.8437   51.7439 N.2     1  ZINC000956479608   -0.3400
     28 C28       -11.0487    5.2614   50.7845 C.2     1  ZINC000956479608   -0.0100
     29 H29        -7.9600    5.0990   50.2931 H       1  ZINC000956479608    0.0800
     30 H30        -8.3288    3.4522   49.7271 H       1  ZINC000956479608    0.0900
     31 H31        -9.0289    4.8586   48.8903 H       1  ZINC000956479608    0.0800
     32 H32       -10.5625    1.7534   53.6610 H       1  ZINC000956479608    0.4100
     33 H33        -8.0513    0.1473   51.7037 H       1  ZINC000956479608    0.0800
     34 H34        -7.9155   -1.2361   52.8155 H       1  ZINC000956479608    0.0700
     35 H35        -9.4928   -0.8168   52.1051 H       1  ZINC000956479608    0.0600
     36 H36        -6.8958    0.2533   54.5623 H       1  ZINC000956479608    0.0800
     37 H37        -7.0112    1.6147   53.4206 H       1  ZINC000956479608    0.1000
     38 H38        -6.8830    2.3497   55.8279 H       1  ZINC000956479608    0.0900
     39 H39        -8.3732    2.8879   55.0114 H       1  ZINC000956479608    0.0600
     40 H40        -8.1426   -0.5509   61.2984 H       1  ZINC000956479608    0.0700
     41 H41        -9.2116    0.5417   62.2053 H       1  ZINC000956479608    0.0700
     42 H42       -10.0660   -1.5635   60.1712 H       1  ZINC000956479608    0.0600
     43 H43       -10.3268   -1.6139   61.9344 H       1  ZINC000956479608    0.0700
     44 H44       -12.3927   -0.8119   61.0042 H       1  ZINC000956479608    0.0700
     45 H45       -11.5705    0.6324   61.6508 H       1  ZINC000956479608    0.0700
     46 H46       -11.5923   -0.3154   58.7516 H       1  ZINC000956479608    0.0700
     47 H47       -12.4010    1.1274   59.4023 H       1  ZINC000956479608    0.0700
     48 H48       -10.2816    0.0769   56.7750 H       1  ZINC000956479608    0.0900
     49 H49       -10.5878    1.4069   55.6285 H       1  ZINC000956479608    0.0700
     50 H50       -10.4769   -0.7029   54.3863 H       1  ZINC000956479608    0.0900
     51 H51        -8.9014   -1.0879   55.1212 H       1  ZINC000956479608    0.0900
     52 H52       -11.2357    6.0914   50.1194 H       1  ZINC000956479608    0.2000
@<TRIPOS>BOND
     1     1     2    1
     2     1    29    1
     3     1    30    1
     4     1    31    1
     5     2    28    1
     6     2     3    2
     7     3     4    1
     8     3    26    1
     9     4     5    2
    10     4     6   am
    11     6     7    1
    12     6    32    1
    13     7    25    1
    14     7     8    1
    15     7     9    1
    16     8    33    1
    17     8    34    1
    18     8    35    1
    19     9    10    1
    20     9    36    1
    21     9    37    1
    22    10    11    1
    23    10    38    1
    24    10    39    1
    25    11    12   am
    26    11    24    1
    27    12    13    2
    28    12    14    1
    29    14    15    1
    30    14    22    1
    31    14    16    1
    32    16    17    1
    33    16    22    1
    34    16    18    1
    35    18    19    1
    36    18    40    1
    37    18    41    1
    38    19    20    1
    39    19    42    1
    40    19    43    1
    41    20    21    1
    42    20    44    1
    43    20    45    1
    44    21    22    1
    45    21    46    1
    46    21    47    1
    47    22    23    1
    48    24    25    1
    49    24    48    1
    50    24    49    1
    51    25    50    1
    52    25    51    1
    53    26    27    1
    54    27    28    2
    55    28    52    1
@<TRIPOS>SUBSTRUCTURE
     1 ZINC000956479608        1 TEMP              0 ****  ****    0 ROOT


##########                                Name:    ZINC000430767928
##########                DOCK_Rotatable_Bonds:                   4
##########                         Heavy_Atoms:                  25
##########                    Molecular_Weight:             358.505
##########                DOCK_Rotatable_Bonds:                   4
##########                       Formal_Charge:          -0.0100002
##########                     HBond_Acceptors:                   5
##########                        HBond_Donors:                   0
##########                         Heavy_Atoms:                  25
##########                          Grid_Score:          -25.517340
##########                     Grid_vdw_energy:          -24.979065
##########                      Grid_es_energy:           -0.538276
##########           Internal_energy_repulsive:           16.019505

@<TRIPOS>MOLECULE
ZINC000430767928
 51 55 1 0 0
SMALL
USER_CHARGES


@<TRIPOS>ATOM
      1 O1         -9.8812   -3.0291   54.9704 O.2     1  ZINC000430767928   -0.4600
      2 C2        -10.5302   -2.0053   54.9884 C.2     1  ZINC000430767928    0.5300
      3 C3        -10.6729   -0.9912   53.8791 C.3     1  ZINC000430767928    0.0400
      4 H4        -11.2773   -1.3557   53.0484 H       1  ZINC000430767928    0.1400
      5 C5         -9.3014   -0.4480   53.4281 C.3     1  ZINC000430767928   -0.1100
      6 C6         -9.6430    1.0028   53.0018 C.3     1  ZINC000430767928   -0.1000
      7 H7         -9.7954    1.0553   51.9238 H       1  ZINC000430767928    0.1000
      8 C8         -8.5272    1.9592   53.4277 C.3     1  ZINC000430767928   -0.0800
      9 C9         -7.1992    1.4932   52.8277 C.3     1  ZINC000430767928   -0.1100
     10 C10        -6.0836    2.4497   53.2536 C.3     1  ZINC000430767928   -0.1200
     11 C11        -6.4023    3.8601   52.7533 C.3     1  ZINC000430767928   -0.1200
     12 C12        -7.7303    4.3260   53.3534 C.3     1  ZINC000430767928   -0.1200
     13 C13        -8.8460    3.3695   52.9274 C.3     1  ZINC000430767928   -0.1200
     14 C14       -10.9536    1.3369   53.7466 C.3     1  ZINC000430767928    0.1600
     15 N15       -11.2837    0.1710   54.5833 N.am    1  ZINC000430767928   -0.6400
     16 C16       -11.8236   -0.3296   55.6991 C.2     1  ZINC000430767928    0.7400
     17 O17       -12.6737    0.2343   56.3598 O.2     1  ZINC000430767928   -0.5100
     18 N18       -11.2853   -1.5307   56.0039 N.am    1  ZINC000430767928   -0.5800
     19 C19       -11.4874   -2.2279   57.2765 C.3     1  ZINC000430767928    0.2600
     20 H20       -11.1091   -3.2470   57.1965 H       1  ZINC000430767928    0.1200
     21 C21       -10.7474   -1.5017   58.3701 C.2     1  ZINC000430767928   -0.2100
     22 C22       -10.5893   -1.9461   59.6178 C.2     1  ZINC000430767928   -0.1200
     23 C23        -9.8702   -1.1053   60.4497 C.2     1  ZINC000430767928   -0.1400
     24 C24        -9.4446    0.0221   59.8776 C.2     1  ZINC000430767928   -0.2300
     25 S25        -9.9537    0.0581   58.1945 S.3     1  ZINC000430767928    0.1700
     26 C26       -12.9808   -2.2627   57.6073 C.3     1  ZINC000430767928   -0.1700
     27 C27       -13.9408   -2.6908   56.4955 C.3     1  ZINC000430767928   -0.1700
     28 C28       -13.6591   -3.6328   57.6678 C.3     1  ZINC000430767928   -0.1600
     29 H29        -8.5919   -0.4519   54.2555 H       1  ZINC000430767928    0.0800
     30 H30        -8.9167   -1.0197   52.5835 H       1  ZINC000430767928    0.1000
     31 H31        -8.4515    1.9679   54.5151 H       1  ZINC000430767928    0.0700
     32 H32        -6.9722    0.4884   53.1841 H       1  ZINC000430767928    0.0600
     33 H33        -7.2750    1.4845   51.7404 H       1  ZINC000430767928    0.0700
     34 H34        -6.0079    2.4583   54.3410 H       1  ZINC000430767928    0.0600
     35 H35        -5.1375    2.1177   52.8261 H       1  ZINC000430767928    0.0600
     36 H36        -5.6076    4.5414   53.0567 H       1  ZINC000430767928    0.0600
     37 H37        -6.4781    3.8514   51.6660 H       1  ZINC000430767928    0.0600
     38 H38        -7.6547    4.3347   54.4407 H       1  ZINC000430767928    0.0600
     39 H39        -7.9575    5.3308   52.9970 H       1  ZINC000430767928    0.0600
     40 H40        -8.9218    3.3609   51.8401 H       1  ZINC000430767928    0.0700
     41 H41        -9.7921    3.7015   53.3550 H       1  ZINC000430767928    0.0600
     42 H42       -10.8147    2.2218   54.3678 H       1  ZINC000430767928    0.0900
     43 H43       -11.7574    1.5058   53.0301 H       1  ZINC000430767928    0.0800
     44 H44       -10.9918   -2.8903   59.9535 H       1  ZINC000430767928    0.1400
     45 H45        -9.6695   -1.3437   61.4837 H       1  ZINC000430767928    0.1400
     46 H46        -8.8718    0.7931   60.3715 H       1  ZINC000430767928    0.1600
     47 H47       -13.3259   -1.4990   58.3043 H       1  ZINC000430767928    0.1200
     48 H48       -14.9178   -2.2087   56.4609 H       1  ZINC000430767928    0.1000
     49 H49       -13.5085   -2.9476   55.5285 H       1  ZINC000430767928    0.1000
     50 H50       -13.0415   -4.5093   57.4720 H       1  ZINC000430767928    0.1000
     51 H51       -14.4508   -3.7703   58.4044 H       1  ZINC000430767928    0.1000
@<TRIPOS>BOND
     1     1     2    2
     2     2    18   am
     3     2     3    1
     4     3     4    1
     5     3    15    1
     6     3     5    1
     7     5     6    1
     8     5    29    1
     9     5    30    1
    10     6     7    1
    11     6     8    1
    12     6    14    1
    13     8    13    1
    14     8     9    1
    15     8    31    1
    16     9    10    1
    17     9    32    1
    18     9    33    1
    19    10    11    1
    20    10    34    1
    21    10    35    1
    22    11    12    1
    23    11    36    1
    24    11    37    1
    25    12    13    1
    26    12    38    1
    27    12    39    1
    28    13    40    1
    29    13    41    1
    30    14    15    1
    31    14    42    1
    32    14    43    1
    33    15    16   am
    34    16    17    2
    35    16    18   am
    36    18    19    1
    37    19    20    1
    38    19    21    1
    39    19    26    1
    40    21    25    1
    41    21    22    2
    42    22    23    1
    43    22    44    1
    44    23    24    2
    45    23    45    1
    46    24    25    1
    47    24    46    1
    48    26    28    1
    49    26    27    1
    50    26    47    1
    51    27    28    1
    52    27    48    1
    53    27    49    1
    54    28    50    1
    55    28    51    1
@<TRIPOS>SUBSTRUCTURE
     1 ZINC000430767928        1 TEMP              0 ****  ****    0 ROOT


##########                                Name:    ZINC000455156110
##########                DOCK_Rotatable_Bonds:                   4
##########                         Heavy_Atoms:                  27
##########                    Molecular_Weight:             370.424
##########                DOCK_Rotatable_Bonds:                   4
##########                       Formal_Charge:           0.0100002
##########                     HBond_Acceptors:                   6
##########                        HBond_Donors:                   1
##########                         Heavy_Atoms:                  27
##########                          Grid_Score:          -25.515072
##########                     Grid_vdw_energy:          -25.632673
##########                      Grid_es_energy:            0.117601
##########           Internal_energy_repulsive:           44.090710

@<TRIPOS>MOLECULE
ZINC000455156110
 50 53 1 0 0
SMALL
USER_CHARGES


@<TRIPOS>ATOM
      1 C1        -14.4849    0.6017   49.4381 C.3     1  ZINC000455156110    0.0300
      2 O2        -13.2439   -0.0382   49.7423 O.3     1  ZINC000455156110   -0.3100
      3 C3        -12.8900   -0.1076   51.0539 C.ar    1  ZINC000455156110    0.0900
      4 C4        -11.6966   -0.7108   51.4185 C.ar    1  ZINC000455156110   -0.1600
      5 C5        -11.3361   -0.7817   52.7506 C.ar    1  ZINC000455156110   -0.0800
      6 C6        -10.0385   -1.4382   53.1458 C.3     1  ZINC000455156110   -0.1100
      7 C7        -12.1685   -0.2483   53.7247 C.ar    1  ZINC000455156110    0.1500
      8 N8        -11.8021   -0.3196   55.0754 N.am    1  ZINC000455156110   -0.6700
      9 C9        -12.5516   -1.0316   55.9402 C.2     1  ZINC000455156110    0.7200
     10 O10       -13.5456   -1.6121   55.5484 O.2     1  ZINC000455156110   -0.5500
     11 N11       -12.1992   -1.1003   57.2393 N.am    1  ZINC000455156110   -0.5600
     12 C12       -11.0301   -0.4404   57.8296 C.3     1  ZINC000455156110    0.1000
     13 C13       -11.0677   -0.8195   59.3151 C.3     1  ZINC000455156110   -0.0200
     14 C14        -9.8074   -1.5927   59.6962 C.3     1  ZINC000455156110   -0.1400
     15 C15        -8.5932   -0.6664   59.5754 C.3     1  ZINC000455156110    0.0600
     16 O16        -8.7915    0.4848   60.3986 O.3     1  ZINC000455156110   -0.3800
     17 C17        -9.9256    1.2755   60.0368 C.3     1  ZINC000455156110    0.0600
     18 C18       -11.1975    0.4336   60.1780 C.3     1  ZINC000455156110   -0.1400
     19 C19       -12.2885   -1.6921   59.4649 C.ar    1  ZINC000455156110   -0.1300
     20 C20       -12.8266   -2.3249   60.5688 C.ar    1  ZINC000455156110   -0.0700
     21 C21       -13.9764   -3.0825   60.4445 C.ar    1  ZINC000455156110   -0.1400
     22 C22       -14.5886   -3.2065   59.2110 C.ar    1  ZINC000455156110   -0.0900
     23 C23       -14.0552   -2.5778   58.1059 C.ar    1  ZINC000455156110   -0.1300
     24 C24       -12.8982   -1.8065   58.2240 C.ar    1  ZINC000455156110    0.1600
     25 C25       -13.3642    0.3567   53.3605 C.ar    1  ZINC000455156110   -0.1200
     26 C26       -13.7222    0.4313   52.0274 C.ar    1  ZINC000455156110    0.0900
     27 F27       -14.8850    1.0201   51.6718 F       1  ZINC000455156110   -0.1300
     28 H28       -14.6457    0.5889   48.3602 H       1  ZINC000455156110    0.1000
     29 H29       -15.2981    0.0710   49.9332 H       1  ZINC000455156110    0.0600
     30 H30       -14.4574    1.6333   49.7892 H       1  ZINC000455156110    0.0600
     31 H31       -11.0481   -1.1258   50.6611 H       1  ZINC000455156110    0.1400
     32 H32        -9.2433   -0.6928   53.1587 H       1  ZINC000455156110    0.0800
     33 H33       -10.1409   -1.8775   54.1382 H       1  ZINC000455156110    0.0600
     34 H34        -9.7926   -2.2193   52.4264 H       1  ZINC000455156110    0.0800
     35 H35       -11.0092    0.1434   55.3880 H       1  ZINC000455156110    0.4100
     36 H36       -10.1140   -0.8086   57.3679 H       1  ZINC000455156110    0.0800
     37 H37       -11.1062    0.6406   57.7127 H       1  ZINC000455156110    0.0900
     38 H38        -9.8942   -1.9472   60.7233 H       1  ZINC000455156110    0.0800
     39 H39        -9.6850   -2.4431   59.0256 H       1  ZINC000455156110    0.0800
     40 H40        -7.6979   -1.1962   59.9005 H       1  ZINC000455156110    0.1000
     41 H41        -8.4753   -0.3553   58.5374 H       1  ZINC000455156110    0.0500
     42 H42        -9.9887    2.1429   60.6938 H       1  ZINC000455156110    0.1000
     43 H43        -9.8225    1.6081   59.0038 H       1  ZINC000455156110    0.0500
     44 H44       -12.0581    1.0156   59.8479 H       1  ZINC000455156110    0.0800
     45 H45       -11.3298    0.1456   61.2209 H       1  ZINC000455156110    0.0800
     46 H46       -12.3473   -2.2278   61.5317 H       1  ZINC000455156110    0.1300
     47 H47       -14.3951   -3.5765   61.3087 H       1  ZINC000455156110    0.1300
     48 H48       -15.4870   -3.7979   59.1128 H       1  ZINC000455156110    0.1300
     49 H49       -14.5378   -2.6790   57.1450 H       1  ZINC000455156110    0.1400
     50 H50       -14.0124    0.7720   54.1180 H       1  ZINC000455156110    0.1700
@<TRIPOS>BOND
     1     1     2    1
     2     1    28    1
     3     1    29    1
     4     1    30    1
     5     2     3    1
     6     3    26   ar
     7     3     4   ar
     8     4     5   ar
     9     4    31    1
    10     5     6    1
    11     5     7   ar
    12     6    32    1
    13     6    33    1
    14     6    34    1
    15     7     8    1
    16     7    25   ar
    17     8     9   am
    18     8    35    1
    19     9    10    2
    20     9    11   am
    21    11    24    1
    22    11    12    1
    23    12    13    1
    24    12    36    1
    25    12    37    1
    26    13    18    1
    27    13    14    1
    28    13    19    1
    29    14    15    1
    30    14    38    1
    31    14    39    1
    32    15    16    1
    33    15    40    1
    34    15    41    1
    35    16    17    1
    36    17    18    1
    37    17    42    1
    38    17    43    1
    39    18    44    1
    40    18    45    1
    41    19    24   ar
    42    19    20   ar
    43    20    21   ar
    44    20    46    1
    45    21    22   ar
    46    21    47    1
    47    22    23   ar
    48    22    48    1
    49    23    24   ar
    50    23    49    1
    51    25    26   ar
    52    25    50    1
    53    26    27    1
@<TRIPOS>SUBSTRUCTURE
     1 ZINC000455156110        1 TEMP              0 ****  ****    0 ROOT


##########                                Name:    ZINC001060620810
##########                DOCK_Rotatable_Bonds:                   5
##########                         Heavy_Atoms:                  24
##########                    Molecular_Weight:             332.421
##########                DOCK_Rotatable_Bonds:                   5
##########                       Formal_Charge:           0.0299998
##########                     HBond_Acceptors:                   6
##########                        HBond_Donors:                   2
##########                         Heavy_Atoms:                  24
##########                          Grid_Score:          -25.430824
##########                     Grid_vdw_energy:          -24.133444
##########                      Grid_es_energy:           -1.297380
##########           Internal_energy_repulsive:            8.712972

@<TRIPOS>MOLECULE
ZINC001060620810
 49 52 1 0 0
SMALL
USER_CHARGES


@<TRIPOS>ATOM
      1 O1        -11.4993    0.2234   62.7756 O.2     1  ZINC001060620810   -0.5400
      2 C2        -10.3105    0.4103   62.6249 C.2     1  ZINC001060620810    0.5500
      3 N3         -9.7165    0.0690   61.4642 N.am    1  ZINC001060620810   -0.7200
      4 C4        -10.5071   -0.5260   60.3840 C.3     1  ZINC001060620810    0.1400
      5 C5        -11.2922    0.5713   59.6626 C.3     1  ZINC001060620810   -0.1300
      6 C6        -12.1180   -0.0501   58.5343 C.3     1  ZINC001060620810   -0.1300
      7 C7        -11.1838   -0.7454   57.5419 C.3     1  ZINC001060620810    0.1600
      8 N8        -10.2504    0.2347   56.9811 N.pl3   1  ZINC001060620810   -0.6900
      9 C9         -9.7370    0.0525   55.7074 C.ar    1  ZINC001060620810    0.5600
     10 N10       -10.0347   -1.0542   55.0432 N.ar    1  ZINC001060620810   -0.5400
     11 C11        -9.5654   -1.2581   53.8231 C.ar    1  ZINC001060620810    0.1700
     12 C12        -8.7441   -0.3002   53.2455 C.ar    1  ZINC001060620810   -0.0700
     13 F13        -8.2434   -0.4779   52.0033 F       1  ZINC001060620810   -0.1300
     14 C14        -8.4489    0.8447   53.9722 C.ar    1  ZINC001060620810    0.1800
     15 N15        -8.9563    0.9867   55.1858 N.ar    1  ZINC001060620810   -0.5500
     16 C16       -10.3987   -1.8427   58.2633 C.3     1  ZINC001060620810   -0.1200
     17 C17        -9.5729   -1.2212   59.3915 C.3     1  ZINC001060620810   -0.1300
     18 C18        -9.4975    1.0241   63.7355 C.3     1  ZINC001060620810   -0.1500
     19 C19        -8.2606    0.2453   64.1636 C.3     1  ZINC001060620810   -0.1500
     20 C20        -9.4866    0.2616   65.0511 C.3     1  ZINC001060620810   -0.1100
     21 H21       -10.0545   -0.6676   65.0943 H       1  ZINC001060620810    0.1100
     22 C22        -9.3856    1.0048   66.3795 C.3     1  ZINC001060620810   -0.0900
     23 C23        -9.7795    2.4715   66.2031 C.3     1  ZINC001060620810   -0.1200
     24 C24        -8.9389    3.0702   65.0696 C.3     1  ZINC001060620810   -0.1200
     25 C25        -9.4724    2.5445   63.7371 C.3     1  ZINC001060620810   -0.0800
     26 H26        -8.7654    0.2174   61.3442 H       1  ZINC001060620810    0.4000
     27 H27       -11.2016   -1.2552   60.8012 H       1  ZINC001060620810    0.0900
     28 H28       -11.9578    1.0666   60.3695 H       1  ZINC001060620810    0.0700
     29 H29       -10.5978    1.3005   59.2454 H       1  ZINC001060620810    0.0600
     30 H30       -12.6773    0.7316   58.0204 H       1  ZINC001060620810    0.0700
     31 H31       -12.8124   -0.7793   58.9516 H       1  ZINC001060620810    0.0800
     32 H32       -11.7721   -1.1881   56.7382 H       1  ZINC001060620810    0.1000
     33 H33        -9.9919    1.0113   57.5017 H       1  ZINC001060620810    0.4100
     34 H34        -9.8147   -2.1608   53.2853 H       1  ZINC001060620810    0.1800
     35 H35        -7.8127    1.6098   53.5526 H       1  ZINC001060620810    0.1800
     36 H36        -9.7332   -2.3379   57.5563 H       1  ZINC001060620810    0.0800
     37 H37       -11.0932   -2.5718   58.6805 H       1  ZINC001060620810    0.0900
     38 H38        -8.8785   -0.4920   58.9743 H       1  ZINC001060620810    0.0700
     39 H39        -9.0137   -2.0030   59.9055 H       1  ZINC001060620810    0.0800
     40 H40        -8.0418   -0.6829   63.6358 H       1  ZINC001060620810    0.1000
     41 H41        -7.3923    0.8180   64.4895 H       1  ZINC001060620810    0.1100
     42 H42        -8.3541    0.9472   66.7270 H       1  ZINC001060620810    0.0700
     43 H43       -10.0415    0.5406   67.1160 H       1  ZINC001060620810    0.0700
     44 H44        -9.5878    3.0157   67.1278 H       1  ZINC001060620810    0.0700
     45 H45       -10.8374    2.5382   65.9487 H       1  ZINC001060620810    0.0700
     46 H46        -7.8972    2.7723   65.1899 H       1  ZINC001060620810    0.0700
     47 H47        -9.0162    4.1573   65.0916 H       1  ZINC001060620810    0.0700
     48 H48        -8.8298    2.8945   62.9291 H       1  ZINC001060620810    0.0700
     49 H49       -10.4834    2.9212   63.5812 H       1  ZINC001060620810    0.0700
@<TRIPOS>BOND
     1     1     2    2
     2     2     3   am
     3     2    18    1
     4     3     4    1
     5     3    26    1
     6     4    17    1
     7     4     5    1
     8     4    27    1
     9     5     6    1
    10     5    28    1
    11     5    29    1
    12     6     7    1
    13     6    30    1
    14     6    31    1
    15     7     8    1
    16     7    16    1
    17     7    32    1
    18     8     9    1
    19     8    33    1
    20     9    15   ar
    21     9    10   ar
    22    10    11   ar
    23    11    12   ar
    24    11    34    1
    25    12    13    1
    26    12    14   ar
    27    14    15   ar
    28    14    35    1
    29    16    17    1
    30    16    36    1
    31    16    37    1
    32    17    38    1
    33    17    39    1
    34    18    20    1
    35    18    25    1
    36    18    19    1
    37    19    20    1
    38    19    40    1
    39    19    41    1
    40    20    21    1
    41    20    22    1
    42    22    23    1
    43    22    42    1
    44    22    43    1
    45    23    24    1
    46    23    44    1
    47    23    45    1
    48    24    25    1
    49    24    46    1
    50    24    47    1
    51    25    48    1
    52    25    49    1
@<TRIPOS>SUBSTRUCTURE
     1 ZINC001060620810        1 TEMP              0 ****  ****    0 ROOT


##########                                Name:    ZINC000616491533
##########                DOCK_Rotatable_Bonds:                   4
##########                         Heavy_Atoms:                  27
##########                    Molecular_Weight:             375.418
##########                DOCK_Rotatable_Bonds:                   4
##########                       Formal_Charge:           0.0299996
##########                     HBond_Acceptors:                   7
##########                        HBond_Donors:                   0
##########                         Heavy_Atoms:                  27
##########                          Grid_Score:          -25.393562
##########                     Grid_vdw_energy:          -25.364353
##########                      Grid_es_energy:           -0.029209
##########           Internal_energy_repulsive:           13.614411

@<TRIPOS>MOLECULE
ZINC000616491533
 50 53 1 0 0
SMALL
USER_CHARGES


@<TRIPOS>ATOM
      1 C1        -12.9630    0.4103   53.4324 C.3     1  ZINC000616491533   -0.1700
      2 C2        -11.8548   -0.6446   53.4241 C.3     1  ZINC000616491533    0.1400
      3 H3        -12.2272   -1.5698   52.9841 H       1  ZINC000616491533    0.0800
      4 C4        -10.6443   -0.1283   52.6153 C.3     1  ZINC000616491533   -0.1200
      5 C5         -9.6985    0.4018   53.7130 C.3     1  ZINC000616491533   -0.0700
      6 C6         -9.9496   -0.5790   54.8743 C.3     1  ZINC000616491533    0.0900
      7 N7        -11.3924   -0.8949   54.7978 N.am    1  ZINC000616491533   -0.6100
      8 C8        -12.1547   -1.3354   55.8181 C.2     1  ZINC000616491533    0.6100
      9 O9        -13.3364   -1.5613   55.6408 O.2     1  ZINC000616491533   -0.5200
     10 C10       -11.5563   -1.5433   57.1492 C.2     1  ZINC000616491533   -0.2400
     11 C11       -11.5415   -0.6382   58.1915 C.2     1  ZINC000616491533    0.0700
     12 C12       -12.1347    0.7470   58.1791 C.3     1  ZINC000616491533    0.3400
     13 F13       -11.1940    1.6617   58.6645 F       1  ZINC000616491533   -0.1900
     14 F14       -12.4875    1.0915   56.8699 F       1  ZINC000616491533   -0.1600
     15 N15       -10.9003   -1.2210   59.2208 N.pl3   1  ZINC000616491533   -0.2900
     16 C16       -10.6667   -0.6406   60.4749 C.ar    1  ZINC000616491533    0.1300
     17 C17        -9.3719   -0.5458   60.9674 C.ar    1  ZINC000616491533   -0.1000
     18 C18        -9.1449    0.0268   62.2035 C.ar    1  ZINC000616491533   -0.1000
     19 C19       -10.2057    0.5049   62.9509 C.ar    1  ZINC000616491533   -0.1000
     20 C20       -11.4962    0.4119   62.4632 C.ar    1  ZINC000616491533   -0.1000
     21 C21       -11.7290   -0.1539   61.2250 C.ar    1  ZINC000616491533   -0.0900
     22 N22       -10.5060   -2.5047   58.8274 N.2     1  ZINC000616491533   -0.2600
     23 C23       -10.8956   -2.7089   57.5990 C.2     1  ZINC000616491533    0.0700
     24 C24        -8.2495    0.3326   53.2529 C.3     1  ZINC000616491533   -0.1400
     25 C25        -7.3438    0.9082   54.3472 C.3     1  ZINC000616491533    0.0600
     26 O26        -7.7641    2.2388   54.6561 O.3     1  ZINC000616491533   -0.3800
     27 C27        -9.0950    2.3305   55.1688 C.3     1  ZINC000616491533    0.0600
     28 C28       -10.0810    1.8196   54.1124 C.3     1  ZINC000616491533   -0.1500
     29 H29       -12.5875    1.3280   53.8849 H       1  ZINC000616491533    0.0600
     30 H30       -13.2797    0.6126   52.4093 H       1  ZINC000616491533    0.0600
     31 H31       -13.8113    0.0414   54.0091 H       1  ZINC000616491533    0.0800
     32 H32       -10.1752   -0.9415   52.0614 H       1  ZINC000616491533    0.0800
     33 H33       -10.9439    0.6756   51.9429 H       1  ZINC000616491533    0.0900
     34 H34        -9.3567   -1.4839   54.7417 H       1  ZINC000616491533    0.0800
     35 H35        -9.7144   -0.1063   55.8280 H       1  ZINC000616491533    0.0800
     36 H36       -13.0220    0.7680   58.8119 H       1  ZINC000616491533    0.1400
     37 H37        -8.5432   -0.9197   60.3845 H       1  ZINC000616491533    0.1300
     38 H38        -8.1380    0.1008   62.5871 H       1  ZINC000616491533    0.1400
     39 H39       -10.0257    0.9515   63.9176 H       1  ZINC000616491533    0.1300
     40 H40       -12.3226    0.7863   63.0491 H       1  ZINC000616491533    0.1400
     41 H41       -12.7373   -0.2263   60.8446 H       1  ZINC000616491533    0.1300
     42 H42       -10.7356   -3.6091   57.0242 H       1  ZINC000616491533    0.2100
     43 H43        -7.9769   -0.7057   53.0636 H       1  ZINC000616491533    0.0800
     44 H44        -8.1299    0.9136   52.3383 H       1  ZINC000616491533    0.0800
     45 H45        -7.4133    0.2879   55.2407 H       1  ZINC000616491533    0.0500
     46 H46        -6.3125    0.9250   53.9945 H       1  ZINC000616491533    0.1000
     47 H47        -9.1804    1.7232   56.0700 H       1  ZINC000616491533    0.0500
     48 H48        -9.3226    3.3695   55.4067 H       1  ZINC000616491533    0.1000
     49 H49       -10.0435    2.4671   53.2363 H       1  ZINC000616491533    0.0800
     50 H50       -11.0899    1.8220   54.5247 H       1  ZINC000616491533    0.0800
@<TRIPOS>BOND
     1     1     2    1
     2     1    29    1
     3     1    30    1
     4     1    31    1
     5     2     3    1
     6     2     7    1
     7     2     4    1
     8     4     5    1
     9     4    32    1
    10     4    33    1
    11     5    28    1
    12     5     6    1
    13     5    24    1
    14     6     7    1
    15     6    34    1
    16     6    35    1
    17     7     8   am
    18     8     9    2
    19     8    10    1
    20    10    23    1
    21    10    11    2
    22    11    12    1
    23    11    15    1
    24    12    13    1
    25    12    14    1
    26    12    36    1
    27    15    16    1
    28    15    22    1
    29    16    21   ar
    30    16    17   ar
    31    17    18   ar
    32    17    37    1
    33    18    19   ar
    34    18    38    1
    35    19    20   ar
    36    19    39    1
    37    20    21   ar
    38    20    40    1
    39    21    41    1
    40    22    23    2
    41    23    42    1
    42    24    25    1
    43    24    43    1
    44    24    44    1
    45    25    26    1
    46    25    45    1
    47    25    46    1
    48    26    27    1
    49    27    28    1
    50    27    47    1
    51    27    48    1
    52    28    49    1
    53    28    50    1
@<TRIPOS>SUBSTRUCTURE
     1 ZINC000616491533        1 TEMP              0 ****  ****    0 ROOT


##########                                Name:    ZINC000364058410
##########                DOCK_Rotatable_Bonds:                   5
##########                         Heavy_Atoms:                  25
##########                    Molecular_Weight:             358.464
##########                DOCK_Rotatable_Bonds:                   5
##########                       Formal_Charge:           0.0100002
##########                     HBond_Acceptors:                   7
##########                        HBond_Donors:                   0
##########                         Heavy_Atoms:                  25
##########                          Grid_Score:          -25.323816
##########                     Grid_vdw_energy:          -24.840063
##########                      Grid_es_energy:           -0.483754
##########           Internal_energy_repulsive:           72.894623

@<TRIPOS>MOLECULE
ZINC000364058410
 47 50 1 0 0
SMALL
USER_CHARGES


@<TRIPOS>ATOM
      1 C1         -8.0230    2.4691   58.2013 C.3     1  ZINC000364058410   -0.0700
      2 C2         -8.2519    1.9184   56.8173 C.2     1  ZINC000364058410   -0.2500
      3 C3         -9.3668    1.2833   56.3876 C.2     1  ZINC000364058410    0.0800
      4 N4         -9.1767    0.9483   55.0942 N.pl3   1  ZINC000364058410   -0.3600
      5 C5        -10.1337    0.2450   54.2365 C.3     1  ZINC000364058410    0.1300
      6 C6        -10.0601   -1.2883   54.3529 C.3     1  ZINC000364058410    0.1100
      7 N7        -11.0752   -1.1561   55.4160 N.am    1  ZINC000364058410   -0.6500
      8 C8        -11.4328   -1.9036   56.4787 C.2     1  ZINC000364058410    0.5600
      9 O9        -10.8558   -2.9452   56.7091 O.2     1  ZINC000364058410   -0.5000
     10 C10       -12.5497   -1.4455   57.3807 C.3     1  ZINC000364058410    0.1400
     11 H11       -13.0972   -0.6340   56.9012 H       1  ZINC000364058410    0.0900
     12 C12       -13.5008   -2.6147   57.6551 C.3     1  ZINC000364058410   -0.1200
     13 C13       -14.5520   -2.1823   58.6799 C.3     1  ZINC000364058410   -0.1200
     14 C14       -13.8619   -1.8028   59.9921 C.3     1  ZINC000364058410   -0.1400
     15 C15       -12.9150   -0.6243   59.7441 C.3     1  ZINC000364058410    0.1000
     16 N16       -11.9917   -0.9766   58.6565 N.am    1  ZINC000364058410   -0.6000
     17 C17       -10.6586   -0.8764   58.8279 C.2     1  ZINC000364058410    0.5900
     18 O18        -9.9044   -1.1713   57.9194 O.2     1  ZINC000364058410   -0.4900
     19 C19       -10.1171   -0.4124   60.1086 C.2     1  ZINC000364058410   -0.2600
     20 C20        -9.3158   -1.1416   60.9412 C.2     1  ZINC000364058410   -0.0600
     21 C21        -8.9517   -0.4611   62.0789 C.2     1  ZINC000364058410   -0.1400
     22 C22        -9.4369    0.7822   62.1765 C.2     1  ZINC000364058410   -0.2400
     23 S23       -10.3885    1.1744   60.8158 S.3     1  ZINC000364058410    0.2100
     24 C24       -11.5414    0.1238   54.8478 C.3     1  ZINC000364058410    0.0900
     25 N25        -7.9029    1.3922   54.7166 N.2     1  ZINC000364058410   -0.3000
     26 C26        -7.3519    1.9787   55.7484 C.2     1  ZINC000364058410    0.0500
     27 H27        -8.3726    3.5005   58.2444 H       1  ZINC000364058410    0.0600
     28 H28        -8.5720    1.8687   58.9267 H       1  ZINC000364058410    0.0600
     29 H29        -6.9585    2.4363   58.4339 H       1  ZINC000364058410    0.0600
     30 H30       -10.2505    1.0808   56.9746 H       1  ZINC000364058410    0.1700
     31 H31       -10.1312    0.6095   53.2092 H       1  ZINC000364058410    0.1300
     32 H32       -10.4174   -1.8138   53.4672 H       1  ZINC000364058410    0.1100
     33 H33        -9.0975   -1.6563   54.7079 H       1  ZINC000364058410    0.0900
     34 H34       -13.9946   -2.9071   56.7285 H       1  ZINC000364058410    0.0800
     35 H35       -12.9349   -3.4592   58.0486 H       1  ZINC000364058410    0.0800
     36 H36       -15.1008   -1.3223   58.2962 H       1  ZINC000364058410    0.0700
     37 H37       -15.2448   -3.0047   58.8585 H       1  ZINC000364058410    0.0800
     38 H38       -14.6129   -1.5173   60.7287 H       1  ZINC000364058410    0.0800
     39 H39       -13.2928   -2.6549   60.3635 H       1  ZINC000364058410    0.0700
     40 H40       -13.4928    0.2550   59.4596 H       1  ZINC000364058410    0.0800
     41 H41       -12.3483   -0.4140   60.6511 H       1  ZINC000364058410    0.0900
     42 H42        -9.0002   -2.1520   60.7271 H       1  ZINC000364058410    0.1500
     43 H43        -8.3205   -0.8982   62.8386 H       1  ZINC000364058410    0.1500
     44 H44        -9.2479    1.4497   63.0042 H       1  ZINC000364058410    0.1700
     45 H45       -11.7614    0.8833   55.5980 H       1  ZINC000364058410    0.0900
     46 H46       -12.3338    0.0131   54.1076 H       1  ZINC000364058410    0.1100
     47 H47        -6.3690    2.4255   55.7726 H       1  ZINC000364058410    0.1800
@<TRIPOS>BOND
     1     1     2    1
     2     1    27    1
     3     1    28    1
     4     1    29    1
     5     2    26    1
     6     2     3    2
     7     3     4    1
     8     3    30    1
     9     4     5    1
    10     4    25    1
    11     5    24    1
    12     5     6    1
    13     5    31    1
    14     6     7    1
    15     6    32    1
    16     6    33    1
    17     7     8   am
    18     7    24    1
    19     8     9    2
    20     8    10    1
    21    10    11    1
    22    10    16    1
    23    10    12    1
    24    12    13    1
    25    12    34    1
    26    12    35    1
    27    13    14    1
    28    13    36    1
    29    13    37    1
    30    14    15    1
    31    14    38    1
    32    14    39    1
    33    15    16    1
    34    15    40    1
    35    15    41    1
    36    16    17   am
    37    17    18    2
    38    17    19    1
    39    19    23    1
    40    19    20    2
    41    20    21    1
    42    20    42    1
    43    21    22    2
    44    21    43    1
    45    22    23    1
    46    22    44    1
    47    24    45    1
    48    24    46    1
    49    25    26    2
    50    26    47    1
@<TRIPOS>SUBSTRUCTURE
     1 ZINC000364058410        1 TEMP              0 ****  ****    0 ROOT


##########                                Name:    ZINC000055987960
##########                DOCK_Rotatable_Bonds:                   6
##########                         Heavy_Atoms:                  28
##########                    Molecular_Weight:             404.868
##########                DOCK_Rotatable_Bonds:                   6
##########                       Formal_Charge:          0.00999941
##########                     HBond_Acceptors:                   7
##########                        HBond_Donors:                   1
##########                         Heavy_Atoms:                  28
##########                          Grid_Score:          -25.305475
##########                     Grid_vdw_energy:          -25.723286
##########                      Grid_es_energy:            0.417811
##########           Internal_energy_repulsive:           13.925563

@<TRIPOS>MOLECULE
ZINC000055987960
 50 52 1 0 0
SMALL
USER_CHARGES


@<TRIPOS>ATOM
      1 C1         -9.0853    3.0990   61.2562 C.3     1  ZINC000055987960   -0.1800
      2 C2        -10.3124    2.4910   61.9384 C.3     1  ZINC000055987960    0.0700
      3 H3        -11.1487    3.1868   61.8708 H       1  ZINC000055987960    0.1200
      4 C4        -10.6840    1.1751   61.2455 C.3     1  ZINC000055987960    0.0800
      5 N5         -9.6194    0.1944   61.5103 N.am    1  ZINC000055987960   -0.6100
      6 C6         -9.0529   -0.5030   60.5056 C.2     1  ZINC000055987960    0.5700
      7 O7         -8.1745   -1.3089   60.7448 O.2     1  ZINC000055987960   -0.5300
      8 C8         -9.4988   -0.2884   59.1151 C.ar    1  ZINC000055987960   -0.1500
      9 C9        -10.7883   -0.6625   58.7276 C.ar    1  ZINC000055987960   -0.0700
     10 C10       -11.2013   -0.4605   57.4299 C.ar    1  ZINC000055987960   -0.1500
     11 C11       -10.3363    0.1154   56.5046 C.ar    1  ZINC000055987960    0.1700
     12 N12       -10.7579    0.3189   55.1912 N.am    1  ZINC000055987960   -0.6700
     13 C13       -10.8124   -0.7184   54.3325 C.2     1  ZINC000055987960    0.5200
     14 O14       -10.4947   -1.8290   54.7022 O.2     1  ZINC000055987960   -0.5000
     15 C15       -11.2680   -0.4985   52.9130 C.3     1  ZINC000055987960   -0.1100
     16 C16       -11.1847    0.9689   52.5802 C.ar    1  ZINC000055987960   -0.1000
     17 C17       -12.3378    1.7323   52.5223 C.ar    1  ZINC000055987960    0.1300
     18 F18       -13.5386    1.1624   52.7640 F       1  ZINC000055987960   -0.1300
     19 C19       -12.2598    3.0809   52.2169 C.ar    1  ZINC000055987960   -0.1500
     20 C20       -11.0314    3.6635   51.9701 C.ar    1  ZINC000055987960   -0.0700
     21 C21        -9.8796    2.9010   52.0280 C.ar    1  ZINC000055987960   -0.1200
     22 C22        -9.9552    1.5549   52.3381 C.ar    1  ZINC000055987960    0.0000
     23 Cl23       -8.5082    0.5985   52.4110 Cl      1  ZINC000055987960   -0.0500
     24 C24        -9.0518    0.4890   56.8872 C.ar    1  ZINC000055987960   -0.1200
     25 C25        -8.6344    0.2946   58.1846 C.ar    1  ZINC000055987960   -0.0500
     26 C26        -9.1912   -0.0022   62.9043 C.3     1  ZINC000055987960    0.0600
     27 C27        -8.8922    1.3711   63.5165 C.3     1  ZINC000055987960    0.0700
     28 H28        -8.0129    1.8002   63.0361 H       1  ZINC000055987960    0.0700
     29 C29        -8.6312    1.2164   65.0161 C.3     1  ZINC000055987960   -0.1500
     30 O30       -10.0158    2.2330   63.3129 O.3     1  ZINC000055987960   -0.3700
     31 H31        -8.2495    2.4027   61.3242 H       1  ZINC000055987960    0.0600
     32 H32        -9.3116    3.2938   60.2079 H       1  ZINC000055987960    0.0700
     33 H33        -8.8206    4.0337   61.7506 H       1  ZINC000055987960    0.0700
     34 H34       -11.6301    0.8060   61.6416 H       1  ZINC000055987960    0.0800
     35 H35       -10.7739    1.3383   60.1716 H       1  ZINC000055987960    0.1000
     36 H36       -11.4601   -1.1099   59.4452 H       1  ZINC000055987960    0.1400
     37 H37       -12.1975   -0.7498   57.1296 H       1  ZINC000055987960    0.1300
     38 H38       -11.0119    1.2071   54.8955 H       1  ZINC000055987960    0.4200
     39 H39       -10.6274   -1.0619   52.2344 H       1  ZINC000055987960    0.1200
     40 H40       -12.2983   -0.8376   52.8054 H       1  ZINC000055987960    0.1200
     41 H41       -13.1592    3.6771   52.1712 H       1  ZINC000055987960    0.1500
     42 H42       -10.9710    4.7151   51.7316 H       1  ZINC000055987960    0.1500
     43 H43        -8.9201    3.3572   51.8346 H       1  ZINC000055987960    0.1400
     44 H44        -8.3828    0.9354   56.1664 H       1  ZINC000055987960    0.1500
     45 H45        -7.6373    0.5849   58.4810 H       1  ZINC000055987960    0.1300
     46 H46        -9.9869   -0.4898   63.4675 H       1  ZINC000055987960    0.0800
     47 H47        -8.2925   -0.6184   62.9289 H       1  ZINC000055987960    0.1100
     48 H48        -7.7772    0.5568   65.1700 H       1  ZINC000055987960    0.0700
     49 H49        -8.4188    2.1932   65.4505 H       1  ZINC000055987960    0.0700
     50 H50        -9.5116    0.7889   65.4959 H       1  ZINC000055987960    0.0700
@<TRIPOS>BOND
     1     1     2    1
     2     1    31    1
     3     1    32    1
     4     1    33    1
     5     2     3    1
     6     2    30    1
     7     2     4    1
     8     4     5    1
     9     4    34    1
    10     4    35    1
    11     5     6   am
    12     5    26    1
    13     6     7    2
    14     6     8    1
    15     8    25   ar
    16     8     9   ar
    17     9    10   ar
    18     9    36    1
    19    10    11   ar
    20    10    37    1
    21    11    12    1
    22    11    24   ar
    23    12    13   am
    24    12    38    1
    25    13    14    2
    26    13    15    1
    27    15    16    1
    28    15    39    1
    29    15    40    1
    30    16    22   ar
    31    16    17   ar
    32    17    18    1
    33    17    19   ar
    34    19    20   ar
    35    19    41    1
    36    20    21   ar
    37    20    42    1
    38    21    22   ar
    39    21    43    1
    40    22    23    1
    41    24    25   ar
    42    24    44    1
    43    25    45    1
    44    26    27    1
    45    26    46    1
    46    26    47    1
    47    27    28    1
    48    27    29    1
    49    27    30    1
    50    29    48    1
    51    29    49    1
    52    29    50    1
@<TRIPOS>SUBSTRUCTURE
     1 ZINC000055987960        1 TEMP              0 ****  ****    0 ROOT


##########                                Name:    ZINC001039666729
##########                DOCK_Rotatable_Bonds:                   3
##########                         Heavy_Atoms:                  25
##########                    Molecular_Weight:             344.376
##########                DOCK_Rotatable_Bonds:                   3
##########                       Formal_Charge:          -0.0199998
##########                     HBond_Acceptors:                  10
##########                        HBond_Donors:                   2
##########                         Heavy_Atoms:                  25
##########                          Grid_Score:          -25.300648
##########                     Grid_vdw_energy:          -21.115198
##########                      Grid_es_energy:           -4.185449
##########           Internal_energy_repulsive:           24.001556

@<TRIPOS>MOLECULE
ZINC001039666729
 45 47 1 0 0
SMALL
USER_CHARGES


@<TRIPOS>ATOM
      1 C1         -7.3903    2.2726   57.4932 C.3     1  ZINC001039666729   -0.1100
      2 C2         -8.5027    1.6355   56.7009 C.ar    1  ZINC001039666729    0.2200
      3 C3         -9.6839    1.2645   57.3237 C.ar    1  ZINC001039666729   -0.3000
      4 C4        -10.6818    0.6815   56.5583 C.ar    1  ZINC001039666729    0.1900
      5 N5        -10.4783    0.4976   55.2644 N.ar    1  ZINC001039666729   -0.5800
      6 C6         -9.3369    0.8638   54.6996 C.ar    1  ZINC001039666729    0.6000
      7 N7         -9.1576    0.6570   53.3428 N.pl3   1  ZINC001039666729   -0.5900
      8 C8         -9.8657   -0.4044   52.5639 C.3     1  ZINC001039666729    0.1200
      9 C9        -11.2695    0.1108   52.2384 C.3     1  ZINC001039666729    0.0900
     10 N10       -11.1393    1.3163   51.3826 N.am    1  ZINC001039666729   -0.7400
     11 C11       -11.2344    2.5043   52.0583 C.2     1  ZINC001039666729    0.5200
     12 O12       -11.4102    2.5230   53.2581 O.2     1  ZINC001039666729   -0.5200
     13 C13       -11.1151    3.7875   51.2769 C.3     1  ZINC001039666729   -0.1500
     14 C14        -9.9130    4.5852   51.7865 C.3     1  ZINC001039666729    0.1100
     15 N15        -8.7034    3.7289   51.6796 N.am    1  ZINC001039666729   -0.6100
     16 C16        -7.9465    3.6746   50.5658 C.2     1  ZINC001039666729    0.6100
     17 O17        -6.9671    2.9555   50.5309 O.2     1  ZINC001039666729   -0.5200
     18 C18        -8.3074    4.4895   49.3866 C.2     1  ZINC001039666729   -0.0400
     19 N19        -9.4609    4.4908   48.7360 N.2     1  ZINC001039666729   -0.2500
     20 N20        -9.3834    5.3346   47.7688 N.pl3   1  ZINC001039666729   -0.2300
     21 N21        -8.2301    5.9006   47.7395 N.2     1  ZINC001039666729   -0.2800
     22 C22        -7.4983    5.4327   48.7220 C.2     1  ZINC001039666729    0.0400
     23 C23        -8.3946    2.9377   52.8988 C.3     1  ZINC001039666729    0.1100
     24 C24        -8.2391    1.4744   52.4927 C.3     1  ZINC001039666729    0.1300
     25 N25        -8.3656    1.4284   55.4015 N.ar    1  ZINC001039666729   -0.5700
     26 H26        -7.5189    3.3550   57.4944 H       1  ZINC001039666729    0.0800
     27 H27        -7.4161    1.9027   58.5182 H       1  ZINC001039666729    0.0800
     28 H28        -6.4313    2.0211   57.0402 H       1  ZINC001039666729    0.0800
     29 H29        -9.8237    1.4258   58.3824 H       1  ZINC001039666729    0.1400
     30 H30       -11.6140    0.3806   57.0130 H       1  ZINC001039666729    0.1600
     31 H31        -9.3240   -0.6077   51.6402 H       1  ZINC001039666729    0.0800
     32 H32        -9.9356   -1.3146   53.1595 H       1  ZINC001039666729    0.0900
     33 H33       -11.8285   -0.6587   51.7061 H       1  ZINC001039666729    0.0800
     34 H34       -11.7885    0.3700   53.1612 H       1  ZINC001039666729    0.1000
     35 H35       -10.9986    1.2671   50.4240 H       1  ZINC001039666729    0.4100
     36 H36       -10.9773    3.5579   50.2203 H       1  ZINC001039666729    0.0800
     37 H37       -12.0231    4.3767   51.4052 H       1  ZINC001039666729    0.1100
     38 H38        -9.7834    5.4815   51.1800 H       1  ZINC001039666729    0.1100
     39 H39       -10.0733    4.8659   52.8276 H       1  ZINC001039666729    0.0900
     40 H40       -10.1013    5.5193   47.1431 H       1  ZINC001039666729    0.4700
     41 H41        -6.4830    5.7079   48.9668 H       1  ZINC001039666729    0.2100
     42 H42        -7.4681    3.2982   53.3457 H       1  ZINC001039666729    0.0800
     43 H43        -9.2103    3.0341   53.6154 H       1  ZINC001039666729    0.1200
     44 H44        -7.2101    1.1540   52.6552 H       1  ZINC001039666729    0.0700
     45 H45        -8.5023    1.3534   51.4419 H       1  ZINC001039666729    0.0900
@<TRIPOS>BOND
     1     1     2    1
     2     1    26    1
     3     1    27    1
     4     1    28    1
     5     2    25   ar
     6     2     3   ar
     7     3     4   ar
     8     3    29    1
     9     4     5   ar
    10     4    30    1
    11     5     6   ar
    12     6     7    1
    13     6    25   ar
    14     7    24    1
    15     7     8    1
    16     8     9    1
    17     8    31    1
    18     8    32    1
    19     9    10    1
    20     9    33    1
    21     9    34    1
    22    10    11   am
    23    10    35    1
    24    11    12    2
    25    11    13    1
    26    13    14    1
    27    13    36    1
    28    13    37    1
    29    14    15    1
    30    14    38    1
    31    14    39    1
    32    15    16   am
    33    15    23    1
    34    16    17    2
    35    16    18    1
    36    18    22    1
    37    18    19    2
    38    19    20    1
    39    20    21    1
    40    20    40    1
    41    21    22    2
    42    22    41    1
    43    23    24    1
    44    23    42    1
    45    23    43    1
    46    24    44    1
    47    24    45    1
@<TRIPOS>SUBSTRUCTURE
     1 ZINC001039666729        1 TEMP              0 ****  ****    0 ROOT


##########                                Name:    ZINC000506388363
##########                DOCK_Rotatable_Bonds:                   5
##########                         Heavy_Atoms:                  29
##########                    Molecular_Weight:             416.858
##########                DOCK_Rotatable_Bonds:                   5
##########                       Formal_Charge:         7.07805e-07
##########                     HBond_Acceptors:                   8
##########                        HBond_Donors:                   1
##########                         Heavy_Atoms:                  29
##########                          Grid_Score:          -25.220438
##########                     Grid_vdw_energy:          -24.159742
##########                      Grid_es_energy:           -1.060695
##########           Internal_energy_repulsive:           14.436347

@<TRIPOS>MOLECULE
ZINC000506388363
 48 51 1 0 0
SMALL
USER_CHARGES


@<TRIPOS>ATOM
      1 O1        -12.4903    2.5847   52.9990 O.2     1  ZINC000506388363   -0.5300
      2 C2        -12.3900    1.4397   53.3947 C.2     1  ZINC000506388363    0.5600
      3 C3        -11.2234    0.6211   53.0010 C.ar    1  ZINC000506388363   -0.1200
      4 C4        -11.4050   -0.5443   52.2549 C.ar    1  ZINC000506388363   -0.0900
      5 C5        -10.3125   -1.3040   51.8899 C.ar    1  ZINC000506388363   -0.1100
      6 C6         -9.0389   -0.9135   52.2622 C.ar    1  ZINC000506388363   -0.0900
      7 C7         -8.8511    0.2417   53.0027 C.ar    1  ZINC000506388363   -0.0400
      8 Cl8        -7.2487    0.7238   53.4647 Cl      1  ZINC000506388363   -0.0600
      9 C9         -9.9356    1.0136   53.3691 C.ar    1  ZINC000506388363   -0.0600
     10 N10       -13.3393    0.9184   54.1969 N.am    1  ZINC000506388363   -0.6100
     11 C11       -13.2312   -0.4607   54.6968 C.3     1  ZINC000506388363    0.1000
     12 C12       -13.4203   -0.4435   56.2174 C.3     1  ZINC000506388363    0.0400
     13 N13       -14.6800    0.2385   56.5432 N.3     1  ZINC000506388363   -0.5300
     14 C14       -14.9839    0.1262   57.9760 C.3     1  ZINC000506388363    0.1200
     15 C15       -15.2320   -1.3187   58.3251 C.2     1  ZINC000506388363   -0.2100
     16 C16       -16.3601   -2.0165   58.0697 C.2     1  ZINC000506388363    0.0600
     17 N17       -16.1883   -3.2720   58.5361 N.pl3   1  ZINC000506388363   -0.4700
     18 N18       -14.9092   -3.3564   59.1006 N.2     1  ZINC000506388363   -0.2700
     19 C19       -14.3264   -2.1834   58.9705 C.2     1  ZINC000506388363    0.1300
     20 C20       -12.9607   -1.8311   59.4318 C.ar    1  ZINC000506388363   -0.0700
     21 C21       -12.7879   -1.0122   60.5480 C.ar    1  ZINC000506388363    0.1500
     22 F22       -13.8640   -0.5378   61.2129 F       1  ZINC000506388363   -0.1200
     23 C23       -11.5127   -0.6877   60.9725 C.ar    1  ZINC000506388363   -0.1600
     24 C24       -10.4101   -1.1728   60.2935 C.ar    1  ZINC000506388363   -0.0500
     25 C25       -10.5745   -1.9850   59.1863 C.ar    1  ZINC000506388363   -0.1600
     26 C26       -11.8442   -2.3218   58.7547 C.ar    1  ZINC000506388363    0.1600
     27 F27       -12.0033   -3.1152   57.6729 F       1  ZINC000506388363   -0.1200
     28 C28       -14.6495    1.6449   56.1201 C.3     1  ZINC000506388363    0.0400
     29 C29       -14.5076    1.7153   54.6005 C.3     1  ZINC000506388363    0.1200
     30 H30       -12.3989   -0.8510   51.9640 H       1  ZINC000506388363    0.1400
     31 H31       -10.4523   -2.2059   51.3125 H       1  ZINC000506388363    0.1400
     32 H32        -8.1874   -1.5122   51.9746 H       1  ZINC000506388363    0.1400
     33 H33        -9.7884    1.9145   53.9462 H       1  ZINC000506388363    0.1400
     34 H34       -14.0041   -1.0778   54.2386 H       1  ZINC000506388363    0.0800
     35 H35       -12.2471   -0.8618   54.4547 H       1  ZINC000506388363    0.1000
     36 H36       -13.4534   -1.4668   56.5913 H       1  ZINC000506388363    0.0900
     37 H37       -12.5889    0.0872   56.6813 H       1  ZINC000506388363    0.0400
     38 H38       -14.1410    0.5007   58.5567 H       1  ZINC000506388363    0.1000
     39 H39       -15.8730    0.7133   58.2059 H       1  ZINC000506388363    0.0400
     40 H40       -17.2441   -1.6368   57.5790 H       1  ZINC000506388363    0.1800
     41 H41       -16.8381   -3.9907   58.4887 H       1  ZINC000506388363    0.4400
     42 H42       -11.3775   -0.0536   61.8364 H       1  ZINC000506388363    0.1500
     43 H43        -9.4162   -0.9162   60.6290 H       1  ZINC000506388363    0.1500
     44 H44        -9.7094   -2.3603   58.6601 H       1  ZINC000506388363    0.1500
     45 H45       -15.5740    2.1361   56.4236 H       1  ZINC000506388363    0.0900
     46 H46       -13.8010    2.1464   56.5854 H       1  ZINC000506388363    0.0400
     47 H47       -14.3696    2.7519   54.2933 H       1  ZINC000506388363    0.1000
     48 H48       -15.4022    1.3070   54.1299 H       1  ZINC000506388363    0.0800
@<TRIPOS>BOND
     1     1     2    2
     2     2     3    1
     3     2    10   am
     4     3     9   ar
     5     3     4   ar
     6     4     5   ar
     7     4    30    1
     8     5     6   ar
     9     5    31    1
    10     6     7   ar
    11     6    32    1
    12     7     8    1
    13     7     9   ar
    14     9    33    1
    15    10    29    1
    16    10    11    1
    17    11    12    1
    18    11    34    1
    19    11    35    1
    20    12    13    1
    21    12    36    1
    22    12    37    1
    23    13    14    1
    24    13    28    1
    25    14    15    1
    26    14    38    1
    27    14    39    1
    28    15    19    1
    29    15    16    2
    30    16    17    1
    31    16    40    1
    32    17    18    1
    33    17    41    1
    34    18    19    2
    35    19    20    1
    36    20    26   ar
    37    20    21   ar
    38    21    22    1
    39    21    23   ar
    40    23    24   ar
    41    23    42    1
    42    24    25   ar
    43    24    43    1
    44    25    26   ar
    45    25    44    1
    46    26    27    1
    47    28    29    1
    48    28    45    1
    49    28    46    1
    50    29    47    1
    51    29    48    1
@<TRIPOS>SUBSTRUCTURE
     1 ZINC000506388363        1 TEMP              0 ****  ****    0 ROOT


##########                                Name:      oleObject5.pdb
##########                DOCK_Rotatable_Bonds:                   5
##########                         Heavy_Atoms:                  24
##########                    Molecular_Weight:             323.438
##########                DOCK_Rotatable_Bonds:                   5
##########                       Formal_Charge:         0.000200074
##########                     HBond_Acceptors:                   4
##########                        HBond_Donors:                   2
##########                         Heavy_Atoms:                  24
##########                          Grid_Score:          -25.203241
##########                     Grid_vdw_energy:          -24.872652
##########                      Grid_es_energy:           -0.330590
##########           Internal_energy_repulsive:           10.231568

@<TRIPOS>MOLECULE
oleObject5.pdb
 49 51 1 0 0
SMALL
NO_CHARGES


@<TRIPOS>ATOM
      1 C         -11.4226   -3.1426   57.4899 C.3     1  UNL        -0.0394
      2 C         -12.3326   -1.9570   57.7957 C.ar    1  UNL        -0.0456
      3 C         -13.7114   -2.2057   57.9437 C.ar    1  UNL        -0.0590
      4 C         -14.6079   -1.1597   58.2038 C.ar    1  UNL        -0.0620
      5 C         -14.1326    0.1527   58.3131 C.ar    1  UNL        -0.0619
      6 C         -12.7628    0.4135   58.1653 C.ar    1  UNL        -0.0565
      7 C         -11.8455   -0.6289   57.9140 C.ar    1  UNL        -0.0188
      8 C         -10.3645   -0.2690   57.7335 C.3     1  UNL         0.0906
      9 N         -10.1699    0.3559   56.4132 N.am    1  UNL        -0.3025
     10 C          -9.6910   -0.3354   55.3149 C.2     1  UNL         0.2156
     11 O          -9.5538   -1.5466   55.3222 O.2     1  UNL        -0.2774
     12 C          -9.5699    0.5223   54.0409 C.3     1  UNL         0.0382
     13 C         -10.8704    0.4718   53.1950 C.3     1  UNL        -0.0292
     14 C         -11.0224   -0.8775   52.4593 C.3     1  UNL        -0.0041
     15 N          -9.8464   -1.1459   51.6139 N.4     1  UNL        -0.3167
     16 C          -8.5799   -1.1789   52.3668 C.3     1  UNL        -0.0041
     17 C          -8.3509    0.1320   53.1607 C.3     1  UNL        -0.0292
     18 C          -9.8422    0.6009   58.8898 C.ar    1  UNL         0.0681
     19 N          -9.7083    1.9261   58.6388 N.ar    1  UNL        -0.2587
     20 C          -9.2644    2.7421   59.6132 C.ar    1  UNL         0.0272
     21 C          -8.9331    2.2792   60.8949 C.ar    1  UNL        -0.0435
     22 C          -9.0715    0.9116   61.1712 C.ar    1  UNL        -0.0559
     23 C          -9.5340    0.0495   60.1589 C.ar    1  UNL        -0.0272
     24 C          -9.6931   -1.4352   60.4617 C.3     1  UNL        -0.0379
     25 H         -11.9587   -4.0957   57.5782 H       1  UNL         0.0280
     26 H         -10.5720   -3.1933   58.1785 H       1  UNL         0.0280
     27 H         -11.0339   -3.0876   56.4673 H       1  UNL         0.0280
     28 H         -14.0950   -3.2181   57.8513 H       1  UNL         0.0626
     29 H         -15.6687   -1.3660   58.3140 H       1  UNL         0.0623
     30 H         -14.8238    0.9678   58.5075 H       1  UNL         0.0623
     31 H         -12.4152    1.4395   58.2407 H       1  UNL         0.0627
     32 H          -9.7627   -1.1826   57.7391 H       1  UNL         0.0624
     33 H         -10.7471    1.1645   56.2227 H       1  UNL         0.1504
     34 H          -9.4227    1.5565   54.3784 H       1  UNL         0.0402
     35 H         -10.8444    1.2782   52.4508 H       1  UNL         0.0288
     36 H         -11.7524    0.6560   53.8209 H       1  UNL         0.0288
     37 H         -11.9272   -0.8549   51.8391 H       1  UNL         0.0428
     38 H         -11.1418   -1.6827   53.1960 H       1  UNL         0.0428
     39 H          -9.7854   -0.4235   50.8973 H       1  UNL         0.1222
     40 H          -7.7431   -1.3343   51.6743 H       1  UNL         0.0428
     41 H          -8.5929   -2.0295   53.0596 H       1  UNL         0.0428
     42 H          -8.1600    0.9420   52.4450 H       1  UNL         0.0288
     43 H          -7.4486    0.0430   53.7793 H       1  UNL         0.0288
     44 H          -9.1723    3.7970   59.3581 H       1  UNL         0.0840
     45 H          -8.5784    2.9664   61.6573 H       1  UNL         0.0639
     46 H          -8.8242    0.5292   62.1575 H       1  UNL         0.0627
     47 H          -9.4069   -1.6699   61.4945 H       1  UNL         0.0280
     48 H          -9.0609   -2.0432   59.8031 H       1  UNL         0.0280
     49 H         -10.7342   -1.7547   60.3326 H       1  UNL         0.0280
@<TRIPOS>BOND
     1     1     2    1
     2     1    25    1
     3     1    26    1
     4     1    27    1
     5     2     3   ar
     6     2     7   ar
     7     3     4   ar
     8     3    28    1
     9     4     5   ar
    10     4    29    1
    11     5     6   ar
    12     5    30    1
    13     6     7   ar
    14     6    31    1
    15     7     8    1
    16     8     9    1
    17     8    18    1
    18     8    32    1
    19     9    10   am
    20     9    33    1
    21    10    11    2
    22    10    12    1
    23    12    13    1
    24    12    17    1
    25    12    34    1
    26    13    14    1
    27    13    35    1
    28    13    36    1
    29    14    15    1
    30    14    37    1
    31    14    38    1
    32    15    16    1
    33    15    39    1
    34    16    17    1
    35    16    40    1
    36    16    41    1
    37    17    42    1
    38    17    43    1
    39    18    19   ar
    40    18    23   ar
    41    19    20   ar
    42    20    21   ar
    43    20    44    1
    44    21    22   ar
    45    21    45    1
    46    22    23   ar
    47    22    46    1
    48    23    24    1
    49    24    47    1
    50    24    48    1
    51    24    49    1
@<TRIPOS>SUBSTRUCTURE
     1 UNL         1 TEMP              0 ****  ****    0 ROOT


##########                                Name:    ZINC001401207732
##########                DOCK_Rotatable_Bonds:                   8
##########                         Heavy_Atoms:                  23
##########                    Molecular_Weight:             337.446
##########                DOCK_Rotatable_Bonds:                   8
##########                       Formal_Charge:          -0.0199995
##########                     HBond_Acceptors:                   8
##########                        HBond_Donors:                   1
##########                         Heavy_Atoms:                  23
##########                          Grid_Score:          -25.169624
##########                     Grid_vdw_energy:          -25.334469
##########                      Grid_es_energy:            0.164844
##########           Internal_energy_repulsive:           13.459644

@<TRIPOS>MOLECULE
ZINC001401207732
 46 47 1 0 0
SMALL
USER_CHARGES


@<TRIPOS>ATOM
      1 C1         -7.6016    1.8768   52.5581 C.3     1  ZINC001401207732   -0.0900
      2 C2         -8.4728    0.8875   53.2887 C.2     1  ZINC001401207732    0.1500
      3 C3         -9.3621    1.2545   54.2451 C.2     1  ZINC001401207732   -0.3000
      4 C4         -9.6154    2.6218   54.7118 C.2     1  ZINC001401207732    0.6100
      5 O5        -10.3460    3.3568   54.0740 O.2     1  ZINC001401207732   -0.5200
      6 N6         -9.0392    3.0640   55.8470 N.am    1  ZINC001401207732   -0.5900
      7 C7         -9.2923    4.4297   56.3130 C.3     1  ZINC001401207732    0.0700
      8 C8         -8.1598    2.1791   56.6150 C.3     1  ZINC001401207732    0.1400
      9 H9         -7.9467    1.2832   56.0318 H       1  ZINC001401207732    0.1100
     10 C10        -6.8510    2.9071   56.9280 C.3     1  ZINC001401207732   -0.1600
     11 C11        -8.8492    1.7844   57.9226 C.3     1  ZINC001401207732    0.0500
     12 N12        -8.7116    0.3368   58.1311 N.3     1  ZINC001401207732   -0.6800
     13 C13        -9.9287   -0.2266   58.7308 C.3     1  ZINC001401207732    0.1500
     14 C14        -9.7702   -0.2846   60.2283 C.2     1  ZINC001401207732    0.1800
     15 N15        -9.7453    0.7363   61.0509 N.2     1  ZINC001401207732   -0.4800
     16 C16        -9.5871    0.2086   62.2779 C.2     1  ZINC001401207732    0.1800
     17 C17        -9.4979    0.9737   63.5732 C.3     1  ZINC001401207732   -0.0100
     18 C18        -8.3177    0.4506   64.3943 C.3     1  ZINC001401207732   -0.1500
     19 C19        -9.2922    2.4601   63.2744 C.3     1  ZINC001401207732   -0.1500
     20 N20        -9.5250   -1.0822   62.1414 N.2     1  ZINC001401207732   -0.3800
     21 O21        -9.6339   -1.3864   60.9722 O.3     1  ZINC001401207732    0.0900
     22 S22       -10.1531   -0.2069   54.8317 S.3     1  ZINC001401207732    0.1800
     23 C23        -9.2333   -1.1524   53.7444 C.2     1  ZINC001401207732    0.0100
     24 N24        -8.4372   -0.4002   53.0546 N.2     1  ZINC001401207732   -0.4800
     25 H25        -6.6646    2.0054   53.1001 H       1  ZINC001401207732    0.0800
     26 H26        -7.3930    1.5055   51.5548 H       1  ZINC001401207732    0.0800
     27 H27        -8.1171    2.8348   52.4911 H       1  ZINC001401207732    0.1000
     28 H28        -8.6144    5.1176   55.8075 H       1  ZINC001401207732    0.0600
     29 H29       -10.3229    4.7050   56.0893 H       1  ZINC001401207732    0.0800
     30 H30        -9.1275    4.4827   57.3892 H       1  ZINC001401207732    0.0900
     31 H31        -6.1967    2.2486   57.4994 H       1  ZINC001401207732    0.0700
     32 H32        -6.3598    3.1882   55.9964 H       1  ZINC001401207732    0.0700
     33 H33        -7.0640    3.8030   57.5112 H       1  ZINC001401207732    0.0600
     34 H34        -9.9063    2.0450   57.8690 H       1  ZINC001401207732    0.0800
     35 H35        -8.3854    2.3168   58.7530 H       1  ZINC001401207732    0.0500
     36 H36        -7.9009    0.1281   58.6944 H       1  ZINC001401207732    0.3600
     37 H37       -10.0924   -1.2323   58.3436 H       1  ZINC001401207732    0.1100
     38 H38       -10.7824    0.4029   58.4797 H       1  ZINC001401207732    0.0800
     39 H39       -10.4207    0.8410   64.1380 H       1  ZINC001401207732    0.1000
     40 H40        -8.2531    1.0040   65.3311 H       1  ZINC001401207732    0.0700
     41 H41        -8.4641   -0.6083   64.6071 H       1  ZINC001401207732    0.0600
     42 H42        -7.3948    0.5834   63.8296 H       1  ZINC001401207732    0.0600
     43 H43       -10.1330    2.8328   62.6894 H       1  ZINC001401207732    0.0600
     44 H44        -9.2277    3.0135   64.2111 H       1  ZINC001401207732    0.0700
     45 H45        -8.3694    2.5929   62.7096 H       1  ZINC001401207732    0.0600
     46 H46        -9.3030   -2.2260   53.6498 H       1  ZINC001401207732    0.2000
@<TRIPOS>BOND
     1     1     2    1
     2     1    25    1
     3     1    26    1
     4     1    27    1
     5     2    24    1
     6     2     3    2
     7     3     4    1
     8     3    22    1
     9     4     5    2
    10     4     6   am
    11     6     7    1
    12     6     8    1
    13     7    28    1
    14     7    29    1
    15     7    30    1
    16     8     9    1
    17     8    10    1
    18     8    11    1
    19    10    31    1
    20    10    32    1
    21    10    33    1
    22    11    12    1
    23    11    34    1
    24    11    35    1
    25    12    13    1
    26    12    36    1
    27    13    14    1
    28    13    37    1
    29    13    38    1
    30    14    21    1
    31    14    15    2
    32    15    16    1
    33    16    17    1
    34    16    20    2
    35    17    18    1
    36    17    19    1
    37    17    39    1
    38    18    40    1
    39    18    41    1
    40    18    42    1
    41    19    43    1
    42    19    44    1
    43    19    45    1
    44    20    21    1
    45    22    23    1
    46    23    24    2
    47    23    46    1
@<TRIPOS>SUBSTRUCTURE
     1 ZINC001401207732        1 TEMP              0 ****  ****    0 ROOT


##########                                Name:    ZINC000836820897
##########                DOCK_Rotatable_Bonds:                   5
##########                         Heavy_Atoms:                  22
##########                    Molecular_Weight:             330.355
##########                DOCK_Rotatable_Bonds:                   5
##########                       Formal_Charge:          -0.0200003
##########                     HBond_Acceptors:                   8
##########                        HBond_Donors:                   1
##########                         Heavy_Atoms:                  22
##########                          Grid_Score:          -25.122616
##########                     Grid_vdw_energy:          -23.942535
##########                      Grid_es_energy:           -1.180081
##########           Internal_energy_repulsive:            7.086980

@<TRIPOS>MOLECULE
ZINC000836820897
 38 40 1 0 0
SMALL
USER_CHARGES


@<TRIPOS>ATOM
      1 O1        -11.1791   -3.5352   56.8564 O.2     1  ZINC000836820897   -0.5200
      2 C2        -11.5390   -2.6612   57.6209 C.2     1  ZINC000836820897    0.5800
      3 C3        -10.5714   -1.6511   58.0960 C.ar    1  ZINC000836820897   -0.1600
      4 C4         -9.8501   -1.8701   59.2713 C.ar    1  ZINC000836820897   -0.0100
      5 C5         -8.9480   -0.9243   59.7099 C.ar    1  ZINC000836820897   -0.1700
      6 C6         -8.7565    0.2426   58.9863 C.ar    1  ZINC000836820897    0.2200
      7 F7         -7.8712    1.1662   59.4206 F       1  ZINC000836820897   -0.1100
      8 C8         -9.4699    0.4650   57.8181 C.ar    1  ZINC000836820897   -0.7200
      9 S9         -9.2194    1.9503   56.9040 S.o2    1  ZINC000836820897    2.7000
     10 O10       -10.2901    2.8188   57.2484 O.2     1  ZINC000836820897   -0.9400
     11 O11        -7.8519    2.2985   57.0710 O.2     1  ZINC000836820897   -0.9400
     12 N12        -9.4153    1.5790   55.3021 N.am    1  ZINC000836820897   -1.0800
     13 C13        -8.5478    0.5821   54.6699 C.3     1  ZINC000836820897    0.0700
     14 C14        -8.1827    0.7942   53.1992 C.3     1  ZINC000836820897   -0.1800
     15 C15        -7.1318    1.0182   54.2883 C.3     1  ZINC000836820897   -0.1900
     16 C16       -10.3706   -0.4761   57.3680 C.ar    1  ZINC000836820897    0.0600
     17 N17       -12.8220   -2.6104   58.0307 N.am    1  ZINC000836820897   -0.6200
     18 C18       -13.8832   -3.5510   57.6427 C.3     1  ZINC000836820897    0.0900
     19 C19       -15.1708   -3.1161   58.3740 C.3     1  ZINC000836820897   -0.1600
     20 C20       -14.6287   -2.2936   59.5727 C.3     1  ZINC000836820897    0.0800
     21 H21       -14.3343   -2.9472   60.3938 H       1  ZINC000836820897    0.1100
     22 F22       -15.5688   -1.3495   59.9991 F       1  ZINC000836820897   -0.1900
     23 C23       -13.3921   -1.6062   58.9471 C.3     1  ZINC000836820897    0.0800
     24 H24        -9.9989   -2.7787   59.8359 H       1  ZINC000836820897    0.1500
     25 H25        -8.3898   -1.0926   60.6191 H       1  ZINC000836820897    0.1600
     26 H26       -10.1044    2.0217   54.7824 H       1  ZINC000836820897    0.4200
     27 H27        -8.6833   -0.4438   55.0122 H       1  ZINC000836820897    0.1400
     28 H28        -8.0783   -0.0923   52.5737 H       1  ZINC000836820897    0.1100
     29 H29        -8.5881    1.6755   52.7022 H       1  ZINC000836820897    0.1000
     30 H30        -6.8456    2.0468   54.5077 H       1  ZINC000836820897    0.1000
     31 H31        -6.3358    0.2790   54.3793 H       1  ZINC000836820897    0.1000
     32 H32       -10.9255   -0.3020   56.4580 H       1  ZINC000836820897    0.1600
     33 H33       -14.0378   -3.5114   56.5645 H       1  ZINC000836820897    0.0800
     34 H34       -13.6100   -4.5626   57.9432 H       1  ZINC000836820897    0.0800
     35 H35       -15.7897   -2.4937   57.7278 H       1  ZINC000836820897    0.0900
     36 H36       -15.7282   -3.9852   58.7233 H       1  ZINC000836820897    0.1000
     37 H37       -12.6721   -1.3425   59.7218 H       1  ZINC000836820897    0.1000
     38 H38       -13.6928   -0.7191   58.3896 H       1  ZINC000836820897    0.0900
@<TRIPOS>BOND
     1     1     2    2
     2     2     3    1
     3     2    17   am
     4     3    16   ar
     5     3     4   ar
     6     4     5   ar
     7     4    24    1
     8     5     6   ar
     9     5    25    1
    10     6     7    1
    11     6     8   ar
    12     8     9    1
    13     8    16   ar
    14     9    10    2
    15     9    11    2
    16     9    12   am
    17    12    13    1
    18    12    26    1
    19    13    15    1
    20    13    14    1
    21    13    27    1
    22    14    15    1
    23    14    28    1
    24    14    29    1
    25    15    30    1
    26    15    31    1
    27    16    32    1
    28    17    23    1
    29    17    18    1
    30    18    19    1
    31    18    33    1
    32    18    34    1
    33    19    20    1
    34    19    35    1
    35    19    36    1
    36    20    21    1
    37    20    22    1
    38    20    23    1
    39    23    37    1
    40    23    38    1
@<TRIPOS>SUBSTRUCTURE
     1 ZINC000836820897        1 TEMP              0 ****  ****    0 ROOT


##########                                Name:    ZINC000828026236
##########                DOCK_Rotatable_Bonds:                   1
##########                         Heavy_Atoms:                  19
##########                    Molecular_Weight:             383.045
##########                DOCK_Rotatable_Bonds:                   1
##########                       Formal_Charge:                   0
##########                     HBond_Acceptors:                   5
##########                        HBond_Donors:                   0
##########                         Heavy_Atoms:                  19
##########                          Grid_Score:          -25.121376
##########                     Grid_vdw_energy:          -25.522413
##########                      Grid_es_energy:            0.401038
##########           Internal_energy_repulsive:            3.122169

@<TRIPOS>MOLECULE
ZINC000828026236
 28 30 1 0 0
SMALL
USER_CHARGES


@<TRIPOS>ATOM
      1 N1         -8.4745   -1.0317   59.7109 N.1     1  ZINC000828026236   -0.3800
      2 C2         -9.5400   -1.2910   59.4144 C.1     1  ZINC000828026236    0.2600
      3 C3        -10.8832   -1.6178   59.0406 C.ar    1  ZINC000828026236   -0.0500
      4 C4        -11.8086   -2.0367   60.0030 C.ar    1  ZINC000828026236    0.0100
      5 C5        -13.0949   -2.3410   59.5900 C.ar    1  ZINC000828026236   -0.1600
      6 Br6       -14.3888   -2.9117   60.8454 Br      1  ZINC000828026236   -0.0100
      7 C7        -13.4263   -2.2237   58.2516 C.ar    1  ZINC000828026236    0.1800
      8 N8        -12.5386   -1.8268   57.3600 N.ar    1  ZINC000828026236   -0.5000
      9 C9        -11.2978   -1.5180   57.7011 C.ar    1  ZINC000828026236    0.3600
     10 N10       -10.3997   -1.1060   56.7314 N.3     1  ZINC000828026236   -0.4900
     11 C11       -10.5009    0.3420   56.5008 C.3     1  ZINC000828026236    0.0500
     12 C12        -9.2735    0.8274   55.7192 C.3     1  ZINC000828026236    0.1100
     13 N13        -9.0926   -0.0491   54.5591 N.pl3   1  ZINC000828026236   -0.4400
     14 C14        -8.3456    0.1623   53.4419 C.2     1  ZINC000828026236   -0.0300
     15 Br15       -7.2955    1.6871   53.0570 Br      1  ZINC000828026236    0.0200
     16 C16        -8.4999   -0.9288   52.6615 C.2     1  ZINC000828026236    0.0300
     17 N17        -9.3230   -1.7817   53.2950 N.2     1  ZINC000828026236   -0.4700
     18 C18        -9.6817   -1.2651   54.4312 C.2     1  ZINC000828026236    0.2300
     19 C19       -10.5916   -1.8592   55.4799 C.3     1  ZINC000828026236    0.1500
     20 H20       -11.5266   -2.1210   61.0421 H       1  ZINC000828026236    0.1600
     21 H21       -14.4297   -2.4616   57.9312 H       1  ZINC000828026236    0.1800
     22 H22       -11.4035    0.5559   55.9283 H       1  ZINC000828026236    0.0700
     23 H23       -10.5488    0.8594   57.4590 H       1  ZINC000828026236    0.1100
     24 H24        -9.4325    1.8524   55.3843 H       1  ZINC000828026236    0.1100
     25 H25        -8.3901    0.7812   56.3561 H       1  ZINC000828026236    0.1000
     26 H26        -8.0420   -1.0883   51.6965 H       1  ZINC000828026236    0.1800
     27 H27       -10.3361   -2.9070   55.6381 H       1  ZINC000828026236    0.1200
     28 H28       -11.6291   -1.7773   55.1563 H       1  ZINC000828026236    0.1000
@<TRIPOS>BOND
     1     1     2    3
     2     2     3    1
     3     3     9   ar
     4     3     4   ar
     5     4     5   ar
     6     4    20    1
     7     5     6    1
     8     5     7   ar
     9     7     8   ar
    10     7    21    1
    11     8     9   ar
    12     9    10    1
    13    10    19    1
    14    10    11    1
    15    11    12    1
    16    11    22    1
    17    11    23    1
    18    12    13    1
    19    12    24    1
    20    12    25    1
    21    13    18    1
    22    13    14    1
    23    14    15    1
    24    14    16    2
    25    16    17    1
    26    16    26    1
    27    17    18    2
    28    18    19    1
    29    19    27    1
    30    19    28    1
@<TRIPOS>SUBSTRUCTURE
     1 ZINC000828026236        1 TEMP              0 ****  ****    0 ROOT


##########                                Name:    ZINC001179023006
##########                DOCK_Rotatable_Bonds:                   3
##########                         Heavy_Atoms:                  25
##########                    Molecular_Weight:             340.465
##########                DOCK_Rotatable_Bonds:                   3
##########                       Formal_Charge:          -0.0100005
##########                     HBond_Acceptors:                   4
##########                        HBond_Donors:                   1
##########                         Heavy_Atoms:                  25
##########                          Grid_Score:          -25.117956
##########                     Grid_vdw_energy:          -25.332733
##########                      Grid_es_energy:            0.214777
##########           Internal_energy_repulsive:           43.390667

@<TRIPOS>MOLECULE
ZINC001179023006
 53 56 1 0 0
SMALL
USER_CHARGES


@<TRIPOS>ATOM
      1 C1        -11.6760   -0.7019   52.4605 C.3     1  ZINC001179023006   -0.1500
      2 C2        -11.2353    0.6031   53.1263 C.3     1  ZINC001179023006   -0.1100
      3 C3         -9.8024    0.4542   53.6414 C.3     1  ZINC001179023006   -0.1100
      4 C4         -9.5676    1.1855   54.9379 C.2     1  ZINC001179023006    0.5400
      5 O5         -8.8048    2.1278   54.9732 O.2     1  ZINC001179023006   -0.5400
      6 N6        -10.2054    0.7927   56.0584 N.am    1  ZINC001179023006   -0.5900
      7 C7         -9.9828    1.4915   57.3314 C.3     1  ZINC001179023006    0.1000
      8 C8         -9.5882    0.4721   58.3975 C.3     1  ZINC001179023006   -0.1200
      9 C9        -10.6602   -0.6249   58.4719 C.3     1  ZINC001179023006   -0.0500
     10 C10       -10.7182   -1.3452   57.1166 C.3     1  ZINC001179023006   -0.1100
     11 C11       -11.1327   -0.3465   56.0326 C.3     1  ZINC001179023006    0.0900
     12 C12       -10.2723   -1.6263   59.5483 C.3     1  ZINC001179023006   -0.0800
     13 C13       -10.0858   -0.9637   60.8789 C.ar    1  ZINC001179023006   -0.0700
     14 C14        -8.7937   -0.8173   61.3735 C.ar    1  ZINC001179023006   -0.1100
     15 C15        -8.5835   -0.1554   62.5672 C.ar    1  ZINC001179023006   -0.1100
     16 C16        -9.6526    0.3616   63.2744 C.ar    1  ZINC001179023006   -0.1200
     17 C17       -10.9377    0.2020   62.7872 C.ar    1  ZINC001179023006   -0.1000
     18 C18       -11.1363   -0.4711   61.5948 C.ar    1  ZINC001179023006   -0.1100
     19 C19       -12.5363   -0.6727   61.0737 C.3     1  ZINC001179023006    0.1400
     20 N20       -12.7416    0.0144   59.8180 N.am    1  ZINC001179023006   -0.7000
     21 C21       -11.9886    0.0055   58.7483 C.2     1  ZINC001179023006    0.5200
     22 O22       -12.4509    0.6203   57.8107 O.2     1  ZINC001179023006   -0.5500
     23 C23        -8.7316    0.7341   52.5736 C.3     1  ZINC001179023006   -0.1200
     24 C24        -7.9494   -0.4543   53.1618 C.3     1  ZINC001179023006   -0.1400
     25 C25        -9.3004   -0.9993   53.6545 C.3     1  ZINC001179023006   -0.1300
     26 H26       -12.6827   -0.5834   52.0597 H       1  ZINC001179023006    0.0600
     27 H27       -10.9889   -0.9467   51.6505 H       1  ZINC001179023006    0.0500
     28 H28       -11.6705   -1.5056   53.1970 H       1  ZINC001179023006    0.0600
     29 H29       -11.8998    0.8278   53.9606 H       1  ZINC001179023006    0.0700
     30 H30       -11.2777    1.4142   52.3994 H       1  ZINC001179023006    0.0700
     31 H31        -9.1824    2.2216   57.2122 H       1  ZINC001179023006    0.0900
     32 H32       -10.8991    1.9976   57.6354 H       1  ZINC001179023006    0.0800
     33 H33        -9.5070    0.9680   59.3647 H       1  ZINC001179023006    0.0800
     34 H34        -8.6287    0.0264   58.1351 H       1  ZINC001179023006    0.0800
     35 H35       -11.4476   -2.1537   57.1649 H       1  ZINC001179023006    0.0800
     36 H36        -9.7364   -1.7543   56.8785 H       1  ZINC001179023006    0.0800
     37 H37       -12.1467    0.0033   56.2266 H       1  ZINC001179023006    0.1200
     38 H38       -11.0914   -0.8292   55.0562 H       1  ZINC001179023006    0.0800
     39 H39       -11.0561   -2.3791   59.6328 H       1  ZINC001179023006    0.0800
     40 H40        -9.3414   -2.1149   59.2608 H       1  ZINC001179023006    0.0900
     41 H41        -7.9558   -1.2205   60.8242 H       1  ZINC001179023006    0.1200
     42 H42        -7.5800   -0.0416   62.9496 H       1  ZINC001179023006    0.1200
     43 H43        -9.4856    0.8878   64.2027 H       1  ZINC001179023006    0.1300
     44 H44       -11.7799    0.5998   63.3340 H       1  ZINC001179023006    0.1300
     45 H45       -13.2473   -0.2928   61.8074 H       1  ZINC001179023006    0.0900
     46 H46       -12.7120   -1.7387   60.9289 H       1  ZINC001179023006    0.0800
     47 H47       -13.5453    0.5545   59.7613 H       1  ZINC001179023006    0.4000
     48 H48        -9.0779    0.5671   51.5538 H       1  ZINC001179023006    0.0900
     49 H49        -8.2298    1.6935   52.6996 H       1  ZINC001179023006    0.0800
     50 H50        -7.2717   -0.1733   53.9679 H       1  ZINC001179023006    0.0800
     51 H51        -7.4737   -1.0825   52.4087 H       1  ZINC001179023006    0.0700
     52 H52        -9.2569   -1.4373   54.6517 H       1  ZINC001179023006    0.0700
     53 H53        -9.8025   -1.6413   52.9306 H       1  ZINC001179023006    0.0900
@<TRIPOS>BOND
     1     1     2    1
     2     1    26    1
     3     1    27    1
     4     1    28    1
     5     2     3    1
     6     2    29    1
     7     2    30    1
     8     3    25    1
     9     3     4    1
    10     3    23    1
    11     4     5    2
    12     4     6   am
    13     6    11    1
    14     6     7    1
    15     7     8    1
    16     7    31    1
    17     7    32    1
    18     8     9    1
    19     8    33    1
    20     8    34    1
    21     9    21    1
    22     9    10    1
    23     9    12    1
    24    10    11    1
    25    10    35    1
    26    10    36    1
    27    11    37    1
    28    11    38    1
    29    12    13    1
    30    12    39    1
    31    12    40    1
    32    13    18   ar
    33    13    14   ar
    34    14    15   ar
    35    14    41    1
    36    15    16   ar
    37    15    42    1
    38    16    17   ar
    39    16    43    1
    40    17    18   ar
    41    17    44    1
    42    18    19    1
    43    19    20    1
    44    19    45    1
    45    19    46    1
    46    20    21   am
    47    20    47    1
    48    21    22    2
    49    23    24    1
    50    23    48    1
    51    23    49    1
    52    24    25    1
    53    24    50    1
    54    24    51    1
    55    25    52    1
    56    25    53    1
@<TRIPOS>SUBSTRUCTURE
     1 ZINC001179023006        1 TEMP              0 ****  ****    0 ROOT


##########                                Name:    ZINC000845755710
##########                DOCK_Rotatable_Bonds:                   3
##########                         Heavy_Atoms:                  24
##########                    Molecular_Weight:             349.814
##########                DOCK_Rotatable_Bonds:                   3
##########                       Formal_Charge:         -0.00999974
##########                     HBond_Acceptors:                   6
##########                        HBond_Donors:                   0
##########                         Heavy_Atoms:                  24
##########                          Grid_Score:          -25.089096
##########                     Grid_vdw_energy:          -24.637909
##########                      Grid_es_energy:           -0.451188
##########           Internal_energy_repulsive:           23.541241

@<TRIPOS>MOLECULE
ZINC000845755710
 44 47 1 0 0
SMALL
USER_CHARGES


@<TRIPOS>ATOM
      1 C1         -6.5325    1.7294   53.4000 C.3     1  ZINC000845755710   -0.1700
      2 C2         -7.8256    2.2410   52.7618 C.3     1  ZINC000845755710    0.2600
      3 C3         -9.0158    1.4485   53.3058 C.3     1  ZINC000845755710   -0.0900
      4 C4         -8.8426   -0.0325   52.9611 C.3     1  ZINC000845755710   -0.1300
      5 C5        -10.0526   -0.8176   53.4770 C.3     1  ZINC000845755710    0.1100
      6 N6        -10.2150   -0.5471   54.9120 N.am    1  ZINC000845755710   -0.6000
      7 C7        -10.2839   -1.5601   55.7983 C.2     1  ZINC000845755710    0.5900
      8 O8        -10.2115   -2.7117   55.4127 O.2     1  ZINC000845755710   -0.5200
      9 C9        -10.4465   -1.2734   57.2316 C.2     1  ZINC000845755710   -0.2200
     10 C10        -9.5874   -0.5898   58.0353 C.2     1  ZINC000845755710    0.0600
     11 O11       -10.0772   -0.5318   59.2791 O.3     1  ZINC000845755710   -0.1800
     12 C12       -11.2668   -1.1623   59.3685 C.ar    1  ZINC000845755710    0.0500
     13 C13       -12.1525   -1.3738   60.4176 C.ar    1  ZINC000845755710   -0.0900
     14 C14       -13.3211   -2.0733   60.2027 C.ar    1  ZINC000845755710   -0.0800
     15 C15       -13.6253   -2.5720   58.9443 C.ar    1  ZINC000845755710   -0.0400
     16 Cl16      -15.1018   -3.4506   58.6950 Cl      1  ZINC000845755710   -0.0600
     17 C17       -12.7577   -2.3713   57.8903 C.ar    1  ZINC000845755710   -0.0500
     18 C18       -11.5791   -1.6622   58.0957 C.ar    1  ZINC000845755710   -0.0900
     19 C19       -10.3003    0.8487   55.3625 C.3     1  ZINC000845755710    0.1000
     20 C20        -9.0876    1.6152   54.8254 C.3     1  ZINC000845755710   -0.1300
     21 O21        -7.9966    3.6351   53.0681 O.3     1  ZINC000845755710   -0.3700
     22 C22        -7.4529    4.3351   51.9232 C.3     1  ZINC000845755710    0.0100
     23 C23        -7.8664    3.4016   50.7581 C.3     1  ZINC000845755710    0.0200
     24 O24        -7.7540    2.0864   51.3382 O.3     1  ZINC000845755710   -0.3800
     25 H25        -5.6858    2.2920   53.0067 H       1  ZINC000845755710    0.0600
     26 H26        -6.5847    1.8597   54.4810 H       1  ZINC000845755710    0.0800
     27 H27        -6.4060    0.6721   53.1671 H       1  ZINC000845755710    0.0800
     28 H28        -9.9361    1.8207   52.8558 H       1  ZINC000845755710    0.0900
     29 H29        -8.7681   -0.1480   51.8798 H       1  ZINC000845755710    0.0800
     30 H30        -7.9353   -0.4118   53.4313 H       1  ZINC000845755710    0.0800
     31 H31       -10.9482   -0.5019   52.9421 H       1  ZINC000845755710    0.0700
     32 H32        -9.8891   -1.8842   53.3225 H       1  ZINC000845755710    0.1000
     33 H33        -8.6500   -0.1585   57.7168 H       1  ZINC000845755710    0.2200
     34 H34       -11.9256   -0.9907   61.4016 H       1  ZINC000845755710    0.1500
     35 H35       -14.0061   -2.2348   61.0219 H       1  ZINC000845755710    0.1500
     36 H36       -12.9942   -2.7594   56.9105 H       1  ZINC000845755710    0.1400
     37 H37       -11.2161    1.3005   54.9813 H       1  ZINC000845755710    0.0800
     38 H38       -10.3003    0.8818   56.4520 H       1  ZINC000845755710    0.0900
     39 H39        -8.1780    1.2204   55.2781 H       1  ZINC000845755710    0.0700
     40 H40        -9.1873    2.6725   55.0711 H       1  ZINC000845755710    0.0800
     41 H41        -7.9086    5.3194   51.8153 H       1  ZINC000845755710    0.1100
     42 H42        -6.3681    4.4146   51.9934 H       1  ZINC000845755710    0.0800
     43 H43        -8.8931    3.6007   50.4508 H       1  ZINC000845755710    0.0800
     44 H44        -7.1831    3.5109   49.9160 H       1  ZINC000845755710    0.1000
@<TRIPOS>BOND
     1     1     2    1
     2     1    25    1
     3     1    26    1
     4     1    27    1
     5     2    24    1
     6     2     3    1
     7     2    21    1
     8     3    20    1
     9     3     4    1
    10     3    28    1
    11     4     5    1
    12     4    29    1
    13     4    30    1
    14     5     6    1
    15     5    31    1
    16     5    32    1
    17     6     7   am
    18     6    19    1
    19     7     8    2
    20     7     9    1
    21     9    18    1
    22     9    10    2
    23    10    11    1
    24    10    33    1
    25    11    12    1
    26    12    18   ar
    27    12    13   ar
    28    13    14   ar
    29    13    34    1
    30    14    15   ar
    31    14    35    1
    32    15    16    1
    33    15    17   ar
    34    17    18   ar
    35    17    36    1
    36    19    20    1
    37    19    37    1
    38    19    38    1
    39    20    39    1
    40    20    40    1
    41    21    22    1
    42    22    23    1
    43    22    41    1
    44    22    42    1
    45    23    24    1
    46    23    43    1
    47    23    44    1
@<TRIPOS>SUBSTRUCTURE
     1 ZINC000845755710        1 TEMP              0 ****  ****    0 ROOT


##########                                Name:    ZINC000345028113
##########                DOCK_Rotatable_Bonds:                   5
##########                         Heavy_Atoms:                  21
##########                    Molecular_Weight:             331.838
##########                DOCK_Rotatable_Bonds:                   5
##########                       Formal_Charge:         4.47035e-07
##########                     HBond_Acceptors:                   6
##########                        HBond_Donors:                   0
##########                         Heavy_Atoms:                  21
##########                          Grid_Score:          -25.039558
##########                     Grid_vdw_energy:          -24.278448
##########                      Grid_es_energy:           -0.761110
##########           Internal_energy_repulsive:           17.016172

@<TRIPOS>MOLECULE
ZINC000345028113
 40 41 1 0 0
SMALL
USER_CHARGES


@<TRIPOS>ATOM
      1 C1        -11.0317   -2.8554   58.4929 C.3     1  ZINC000345028113   -0.1700
      2 C2        -11.2487   -1.3570   58.7142 C.3     1  ZINC000345028113    0.1400
      3 H3        -11.1816   -1.1336   59.7789 H       1  ZINC000345028113    0.1100
      4 C4        -12.6348   -0.9598   58.1953 C.3     1  ZINC000345028113   -0.0700
      5 H5        -12.8067    0.0995   58.3865 H       1  ZINC000345028113    0.0900
      6 C6        -13.7058   -1.7895   58.9064 C.3     1  ZINC000345028113   -0.1400
      7 S7        -12.7031   -1.2749   56.4068 S.3     1  ZINC000345028113   -0.2400
      8 C8        -11.2671   -0.3445   55.7943 C.3     1  ZINC000345028113   -0.1100
      9 C9        -10.0195   -0.8041   56.5562 C.3     1  ZINC000345028113    0.1000
     10 N10       -10.2226   -0.6035   57.9919 N.am    1  ZINC000345028113   -0.6100
     11 C11        -9.4565    0.2846   58.6558 C.2     1  ZINC000345028113    0.5200
     12 O12        -8.6033    0.9112   58.0640 O.2     1  ZINC000345028113   -0.5300
     13 C13        -9.6599    0.4988   60.1336 C.3     1  ZINC000345028113   -0.1400
     14 C14        -9.0770   -0.6865   60.9058 C.3     1  ZINC000345028113    0.0700
     15 O15        -9.8511   -0.9138   62.0852 O.3     1  ZINC000345028113   -0.3000
     16 C16        -9.4732   -0.2488   63.2094 C.ar    1  ZINC000345028113    0.1300
     17 C17        -8.1862   -0.3965   63.7034 C.ar    1  ZINC000345028113   -0.1700
     18 C18        -7.8031    0.2803   64.8458 C.ar    1  ZINC000345028113   -0.1100
     19 C19        -8.7033    1.1057   65.4973 C.ar    1  ZINC000345028113    0.0800
     20 F20        -8.3268    1.7668   66.6137 F       1  ZINC000345028113   -0.1300
     21 C21        -9.9893    1.2547   65.0057 C.ar    1  ZINC000345028113   -0.1100
     22 C22       -10.3739    0.5833   63.8603 C.ar    1  ZINC000345028113   -0.0400
     23 Cl23      -11.9859    0.7700   63.2438 Cl      1  ZINC000345028113   -0.0400
     24 H24       -10.0458   -3.1381   58.8620 H       1  ZINC000345028113    0.0600
     25 H25       -11.7957   -3.4165   59.0308 H       1  ZINC000345028113    0.0800
     26 H26       -11.0988   -3.0789   57.4281 H       1  ZINC000345028113    0.0800
     27 H27       -13.6543   -1.6061   59.9797 H       1  ZINC000345028113    0.0800
     28 H28       -14.6908   -1.5054   58.5361 H       1  ZINC000345028113    0.0700
     29 H29       -13.5351   -2.8480   58.7101 H       1  ZINC000345028113    0.0700
     30 H30       -11.1355   -0.5350   54.7292 H       1  ZINC000345028113    0.1200
     31 H31       -11.4245    0.7213   55.9602 H       1  ZINC000345028113    0.0900
     32 H32        -9.8421   -1.8612   56.3587 H       1  ZINC000345028113    0.0900
     33 H33        -9.1580   -0.2233   56.2266 H       1  ZINC000345028113    0.1000
     34 H34        -9.1562    1.4154   60.4406 H       1  ZINC000345028113    0.1100
     35 H35       -10.7259    0.5816   60.3454 H       1  ZINC000345028113    0.1100
     36 H36        -9.1019   -1.5770   60.2775 H       1  ZINC000345028113    0.0800
     37 H37        -8.0462   -0.4672   61.1843 H       1  ZINC000345028113    0.0800
     38 H38        -7.4834   -1.0406   63.1959 H       1  ZINC000345028113    0.1500
     39 H39        -6.8007    0.1649   65.2308 H       1  ZINC000345028113    0.1500
     40 H40       -10.6908    1.8989   65.5151 H       1  ZINC000345028113    0.1500
@<TRIPOS>BOND
     1     1     2    1
     2     1    24    1
     3     1    25    1
     4     1    26    1
     5     2     3    1
     6     2    10    1
     7     2     4    1
     8     4     5    1
     9     4     6    1
    10     4     7    1
    11     6    27    1
    12     6    28    1
    13     6    29    1
    14     7     8    1
    15     8     9    1
    16     8    30    1
    17     8    31    1
    18     9    10    1
    19     9    32    1
    20     9    33    1
    21    10    11   am
    22    11    12    2
    23    11    13    1
    24    13    14    1
    25    13    34    1
    26    13    35    1
    27    14    15    1
    28    14    36    1
    29    14    37    1
    30    15    16    1
    31    16    22   ar
    32    16    17   ar
    33    17    18   ar
    34    17    38    1
    35    18    19   ar
    36    18    39    1
    37    19    20    1
    38    19    21   ar
    39    21    22   ar
    40    21    40    1
    41    22    23    1
@<TRIPOS>SUBSTRUCTURE
     1 ZINC000345028113        1 TEMP              0 ****  ****    0 ROOT


##########                                Name:    ZINC000341804698
##########                DOCK_Rotatable_Bonds:                   7
##########                         Heavy_Atoms:                  24
##########                    Molecular_Weight:             342.318
##########                DOCK_Rotatable_Bonds:                   7
##########                       Formal_Charge:                0.02
##########                     HBond_Acceptors:                   8
##########                        HBond_Donors:                   0
##########                         Heavy_Atoms:                  24
##########                          Grid_Score:          -24.908026
##########                     Grid_vdw_energy:          -23.490637
##########                      Grid_es_energy:           -1.417388
##########           Internal_energy_repulsive:           13.590591

@<TRIPOS>MOLECULE
ZINC000341804698
 41 42 1 0 0
SMALL
USER_CHARGES


@<TRIPOS>ATOM
      1 C1         -0.0495   -1.9299   48.5611 C.3     1  ZINC000341804698    0.0300
      2 O2          0.8995   -0.8751   48.7310 O.3     1  ZINC000341804698   -0.3900
      3 C3          2.0752   -1.2605   49.4459 C.3     1  ZINC000341804698    0.0700
      4 C4          2.3922   -0.2088   50.5109 C.3     1  ZINC000341804698    0.0400
      5 C5          3.3613   -0.7605   51.4719 C.1     1  ZINC000341804698    0.2200
      6 N6          4.1091   -1.1862   52.2134 N.1     1  ZINC000341804698   -0.4200
      7 C7          2.9882    1.0315   49.8412 C.3     1  ZINC000341804698   -0.1200
      8 C8          3.3362    2.0686   50.9137 C.3     1  ZINC000341804698    0.1100
      9 N9          2.1374    2.3355   51.7201 N.am    1  ZINC000341804698   -0.6000
     10 C10         1.6919    3.5959   51.8916 C.2     1  ZINC000341804698    0.5700
     11 O11         2.2832    4.5248   51.3769 O.2     1  ZINC000341804698   -0.5200
     12 C12         0.4840    3.8486   52.7059 C.ar    1  ZINC000341804698   -0.0900
     13 C13         0.5963    4.0454   54.0831 C.ar    1  ZINC000341804698   -0.1100
     14 C14        -0.5332    4.2810   54.8402 C.ar    1  ZINC000341804698   -0.0800
     15 C15        -1.7772    4.3229   54.2389 C.ar    1  ZINC000341804698   -0.1700
     16 C16        -1.8990    4.1277   52.8696 C.ar    1  ZINC000341804698    0.1100
     17 O17        -3.1247    4.1696   52.2838 O.3     1  ZINC000341804698   -0.3100
     18 C18        -3.8130    5.4217   52.3082 C.3     1  ZINC000341804698    0.6000
     19 F19        -4.6944    5.4906   51.2239 F       1  ZINC000341804698   -0.1600
     20 F20        -4.5329    5.5349   53.5023 F       1  ZINC000341804698   -0.1300
     21 F21        -2.8855    6.4654   52.2221 F       1  ZINC000341804698   -0.1600
     22 C22        -0.7717    3.8969   52.0996 C.ar    1  ZINC000341804698   -0.0700
     23 C23         1.4332    1.2023   52.3354 C.3     1  ZINC000341804698    0.0900
     24 C24         1.1065    0.1751   51.2470 C.3     1  ZINC000341804698   -0.1200
     25 H25         0.4111   -2.7471   48.0060 H       1  ZINC000341804698    0.0400
     26 H26        -0.3709   -2.2903   49.5383 H       1  ZINC000341804698    0.0500
     27 H27        -0.9125   -1.5569   48.0095 H       1  ZINC000341804698    0.0900
     28 H28         1.9088   -2.2249   49.9258 H       1  ZINC000341804698    0.0700
     29 H29         2.9126   -1.3394   48.7525 H       1  ZINC000341804698    0.0600
     30 H30         3.8911    0.7530   49.2978 H       1  ZINC000341804698    0.1000
     31 H31         2.2617    1.4550   49.1477 H       1  ZINC000341804698    0.0900
     32 H32         4.1283    1.6803   51.5540 H       1  ZINC000341804698    0.0700
     33 H33         3.6683    2.9905   50.4364 H       1  ZINC000341804698    0.1100
     34 H34         1.5667    4.0130   54.5561 H       1  ZINC000341804698    0.1400
     35 H35        -0.4449    4.4328   55.9058 H       1  ZINC000341804698    0.1400
     36 H36        -2.6578    4.5076   54.8364 H       1  ZINC000341804698    0.1400
     37 H37        -0.8650    3.7454   51.0344 H       1  ZINC000341804698    0.1500
     38 H38         2.0701    0.7435   53.0917 H       1  ZINC000341804698    0.0800
     39 H39         0.5096    1.5527   52.7962 H       1  ZINC000341804698    0.1100
     40 H40         0.3977    0.6066   50.5403 H       1  ZINC000341804698    0.1000
     41 H41         0.6700   -0.7131   51.7042 H       1  ZINC000341804698    0.0900
@<TRIPOS>BOND
     1     1     2    1
     2     1    25    1
     3     1    26    1
     4     1    27    1
     5     2     3    1
     6     3     4    1
     7     3    28    1
     8     3    29    1
     9     4    24    1
    10     4     5    1
    11     4     7    1
    12     5     6    3
    13     7     8    1
    14     7    30    1
    15     7    31    1
    16     8     9    1
    17     8    32    1
    18     8    33    1
    19     9    10   am
    20     9    23    1
    21    10    11    2
    22    10    12    1
    23    12    22   ar
    24    12    13   ar
    25    13    14   ar
    26    13    34    1
    27    14    15   ar
    28    14    35    1
    29    15    16   ar
    30    15    36    1
    31    16    17    1
    32    16    22   ar
    33    17    18    1
    34    18    19    1
    35    18    20    1
    36    18    21    1
    37    22    37    1
    38    23    24    1
    39    23    38    1
    40    23    39    1
    41    24    40    1
    42    24    41    1
@<TRIPOS>SUBSTRUCTURE
     1 ZINC000341804698        1 TEMP              0 ****  ****    0 ROOT


##########                                Name:    ZINC001002468398
##########                DOCK_Rotatable_Bonds:                   7
##########                         Heavy_Atoms:                  24
##########                    Molecular_Weight:             341.358
##########                DOCK_Rotatable_Bonds:                   7
##########                       Formal_Charge:           0.0100001
##########                     HBond_Acceptors:                   8
##########                        HBond_Donors:                   0
##########                         Heavy_Atoms:                  24
##########                          Grid_Score:          -24.770319
##########                     Grid_vdw_energy:          -22.717043
##########                      Grid_es_energy:           -2.053276
##########           Internal_energy_repulsive:           16.157728

@<TRIPOS>MOLECULE
ZINC001002468398
 45 47 1 0 0
SMALL
USER_CHARGES


@<TRIPOS>ATOM
      1 C1         -0.6350    3.1971   58.0028 C.3     1  ZINC001002468398   -0.1400
      2 C2         -2.1333    3.1988   57.6930 C.3     1  ZINC001002468398   -0.0500
      3 C3         -2.8711    3.9301   58.7847 C.2     1  ZINC001002468398    0.0500
      4 C4         -4.0210    4.6448   58.6468 C.2     1  ZINC001002468398   -0.0800
      5 C5         -4.7807    4.8498   57.4003 C.2     1  ZINC001002468398    0.6000
      6 O6         -4.4189    5.6901   56.5990 O.2     1  ZINC001002468398   -0.5300
      7 N7         -5.8762    4.1062   57.1485 N.am    1  ZINC001002468398   -0.6000
      8 C8         -6.6309    4.3102   55.9096 C.3     1  ZINC001002468398    0.0900
      9 C9         -6.3121    3.0941   58.1136 C.3     1  ZINC001002468398    0.1000
     10 C10        -7.7770    3.3380   58.4817 C.3     1  ZINC001002468398    0.1300
     11 H11        -8.4038    3.2356   57.5959 H       1  ZINC001002468398    0.0800
     12 C12        -7.9397    4.7515   59.0793 C.3     1  ZINC001002468398   -0.1300
     13 C13        -8.9795    4.5332   60.2100 C.3     1  ZINC001002468398   -0.1300
     14 C14        -8.5917    3.1234   60.7213 C.3     1  ZINC001002468398    0.1000
     15 N15        -8.2017    2.3751   59.5085 N.am    1  ZINC001002468398   -0.6100
     16 C16        -8.2294    1.0348   59.3696 C.2     1  ZINC001002468398    0.5600
     17 O17        -7.8851    0.5263   58.3237 O.2     1  ZINC001002468398   -0.5100
     18 C18        -8.6881    0.1680   60.5139 C.3     1  ZINC001002468398   -0.2000
     19 H19        -8.0856    0.2283   61.4202 H       1  ZINC001002468398    0.1500
     20 C20        -9.3115   -1.1859   60.1688 C.3     1  ZINC001002468398   -0.1500
     21 C21       -10.1941   -0.0444   60.6797 C.3     1  ZINC001002468398    0.2300
     22 F22       -10.6925   -0.1468   61.9829 F       1  ZINC001002468398   -0.1500
     23 F23       -11.0402    0.5805   59.7572 F       1  ZINC001002468398   -0.1400
     24 N24        -4.3379    5.1340   59.8764 N.2     1  ZINC001002468398   -0.4600
     25 C25        -3.4326    4.7414   60.7217 C.2     1  ZINC001002468398    0.1700
     26 O26        -2.5223    3.9957   60.0795 O.3     1  ZINC001002468398   -0.2000
     27 H27        -0.2746    4.2243   58.0597 H       1  ZINC001002468398    0.0600
     28 H28        -0.4616    2.6978   58.9560 H       1  ZINC001002468398    0.0600
     29 H29        -0.1013    2.6682   57.2131 H       1  ZINC001002468398    0.0700
     30 H30        -2.3067    3.6980   56.7398 H       1  ZINC001002468398    0.1200
     31 H31        -2.4936    2.1717   57.6360 H       1  ZINC001002468398    0.0900
     32 H32        -5.9996    4.0663   55.0551 H       1  ZINC001002468398    0.0700
     33 H33        -7.5090    3.6643   55.9086 H       1  ZINC001002468398    0.0700
     34 H34        -6.9459    5.3515   55.8432 H       1  ZINC001002468398    0.0700
     35 H35        -6.2086    2.1027   57.6724 H       1  ZINC001002468398    0.0900
     36 H36        -5.6965    3.1585   59.0109 H       1  ZINC001002468398    0.0900
     37 H37        -6.9945    5.1085   59.4882 H       1  ZINC001002468398    0.1000
     38 H38        -8.3237    5.4447   58.3308 H       1  ZINC001002468398    0.0800
     39 H39        -8.8641    5.2793   60.9962 H       1  ZINC001002468398    0.0900
     40 H40        -9.9949    4.5395   59.8137 H       1  ZINC001002468398    0.0800
     41 H41        -7.7529    3.1885   61.4144 H       1  ZINC001002468398    0.0800
     42 H42        -9.4457    2.6458   61.2017 H       1  ZINC001002468398    0.0800
     43 H43        -9.3899   -1.4498   59.1141 H       1  ZINC001002468398    0.1300
     44 H44        -9.1194   -2.0163   60.8483 H       1  ZINC001002468398    0.1400
     45 H45        -3.4182    4.9751   61.7760 H       1  ZINC001002468398    0.2600
@<TRIPOS>BOND
     1     1     2    1
     2     1    27    1
     3     1    28    1
     4     1    29    1
     5     2     3    1
     6     2    30    1
     7     2    31    1
     8     3    26    1
     9     3     4    2
    10     4     5    1
    11     4    24    1
    12     5     6    2
    13     5     7   am
    14     7     8    1
    15     7     9    1
    16     8    32    1
    17     8    33    1
    18     8    34    1
    19     9    10    1
    20     9    35    1
    21     9    36    1
    22    10    11    1
    23    10    15    1
    24    10    12    1
    25    12    13    1
    26    12    37    1
    27    12    38    1
    28    13    14    1
    29    13    39    1
    30    13    40    1
    31    14    15    1
    32    14    41    1
    33    14    42    1
    34    15    16   am
    35    16    17    2
    36    16    18    1
    37    18    19    1
    38    18    21    1
    39    18    20    1
    40    20    21    1
    41    20    43    1
    42    20    44    1
    43    21    22    1
    44    21    23    1
    45    24    25    2
    46    25    26    1
    47    25    45    1
@<TRIPOS>SUBSTRUCTURE
     1 ZINC001002468398        1 TEMP              0 ****  ****    0 ROOT


##########                                Name:    ZINC000375477402
##########                DOCK_Rotatable_Bonds:                   5
##########                         Heavy_Atoms:                  26
##########                    Molecular_Weight:             378.342
##########                DOCK_Rotatable_Bonds:                   5
##########                       Formal_Charge:         -1.2666e-07
##########                     HBond_Acceptors:                   9
##########                        HBond_Donors:                   1
##########                         Heavy_Atoms:                  26
##########                          Grid_Score:          -24.732933
##########                     Grid_vdw_energy:          -24.517300
##########                      Grid_es_energy:           -0.215634
##########           Internal_energy_repulsive:            9.068659

@<TRIPOS>MOLECULE
ZINC000375477402
 45 47 1 0 0
SMALL
USER_CHARGES


@<TRIPOS>ATOM
      1 O1         -8.7128    1.5215   58.3373 O.2     1  ZINC000375477402   -0.5600
      2 C2         -9.3444    0.7681   57.6219 C.2     1  ZINC000375477402    0.7200
      3 N3        -10.2206   -0.1003   58.1646 N.am    1  ZINC000375477402   -0.7300
      4 C4        -10.4076   -0.1407   59.6171 C.3     1  ZINC000375477402    0.1800
      5 H5        -10.2956    0.8635   60.0260 H       1  ZINC000375477402    0.1500
      6 C6        -11.7867   -0.6603   59.9319 C.ar    1  ZINC000375477402   -0.1300
      7 C7        -12.2128   -1.8598   59.3934 C.ar    1  ZINC000375477402   -0.0800
      8 C8        -13.4777   -2.3379   59.6812 C.ar    1  ZINC000375477402   -0.0900
      9 C9        -14.3189   -1.6172   60.5079 C.ar    1  ZINC000375477402   -0.1100
     10 C10       -13.8952   -0.4157   61.0486 C.ar    1  ZINC000375477402    0.0800
     11 F11       -14.7169    0.2893   61.8568 F       1  ZINC000375477402   -0.1200
     12 C12       -12.6245    0.0609   60.7647 C.ar    1  ZINC000375477402    0.1000
     13 F13       -12.2088    1.2335   61.2913 F       1  ZINC000375477402   -0.1100
     14 C14        -9.3598   -1.0649   60.2406 C.3     1  ZINC000375477402    0.4400
     15 F15        -8.0982   -0.4671   60.1511 F       1  ZINC000375477402   -0.1600
     16 F16        -9.6757   -1.2882   61.5851 F       1  ZINC000375477402   -0.1700
     17 F17        -9.3474   -2.2849   59.5557 F       1  ZINC000375477402   -0.1800
     18 N18        -9.1724    0.8053   56.2857 N.am    1  ZINC000375477402   -0.6300
     19 C19        -8.2521    1.7022   55.5618 C.3     1  ZINC000375477402    0.1000
     20 C20        -7.9588    0.9767   54.2235 C.3     1  ZINC000375477402   -0.1200
     21 C21        -9.3268    0.3269   53.9183 C.3     1  ZINC000375477402   -0.1100
     22 C22        -9.8671   -0.0468   55.3069 C.3     1  ZINC000375477402    0.1400
     23 C23       -10.2434    1.3299   53.2289 C.3     1  ZINC000375477402   -0.1100
     24 C24       -11.5685    0.6424   52.8793 C.3     1  ZINC000375477402   -0.1600
     25 C25       -11.2795   -0.5967   52.0278 C.3     1  ZINC000375477402    0.0600
     26 O26       -10.4171   -1.4800   52.7480 O.3     1  ZINC000375477402   -0.3800
     27 C27        -9.1397   -0.9185   53.0625 C.3     1  ZINC000375477402    0.0800
     28 H28       -10.7275   -0.6985   57.5935 H       1  ZINC000375477402    0.4000
     29 H29       -11.5570   -2.4241   58.7470 H       1  ZINC000375477402    0.1400
     30 H30       -13.8091   -3.2752   59.2593 H       1  ZINC000375477402    0.1500
     31 H31       -15.3069   -1.9916   60.7316 H       1  ZINC000375477402    0.1500
     32 H32        -8.7292    2.6642   55.3748 H       1  ZINC000375477402    0.0700
     33 H33        -7.3313    1.8384   56.1289 H       1  ZINC000375477402    0.0700
     34 H34        -7.6817    1.6882   53.4457 H       1  ZINC000375477402    0.0900
     35 H35        -7.1859    0.2188   54.3510 H       1  ZINC000375477402    0.0800
     36 H36        -9.6661   -1.0982   55.5128 H       1  ZINC000375477402    0.0800
     37 H37       -10.9392    0.1444   55.3519 H       1  ZINC000375477402    0.0700
     38 H38       -10.4338    2.1692   53.8978 H       1  ZINC000375477402    0.0700
     39 H39        -9.7683    1.6904   52.3166 H       1  ZINC000375477402    0.0700
     40 H40       -12.0775    0.3443   53.7959 H       1  ZINC000375477402    0.0700
     41 H41       -12.1996    1.3314   52.3179 H       1  ZINC000375477402    0.0800
     42 H42       -12.2151   -1.1076   51.8006 H       1  ZINC000375477402    0.1000
     43 H43       -10.7959   -0.2944   51.0989 H       1  ZINC000375477402    0.0500
     44 H44        -8.6237   -0.6512   52.1404 H       1  ZINC000375477402    0.0600
     45 H45        -8.5466   -1.6502   53.6111 H       1  ZINC000375477402    0.1000
@<TRIPOS>BOND
     1     1     2    2
     2     2     3   am
     3     2    18   am
     4     3     4    1
     5     3    28    1
     6     4     5    1
     7     4     6    1
     8     4    14    1
     9     6    12   ar
    10     6     7   ar
    11     7     8   ar
    12     7    29    1
    13     8     9   ar
    14     8    30    1
    15     9    10   ar
    16     9    31    1
    17    10    11    1
    18    10    12   ar
    19    12    13    1
    20    14    15    1
    21    14    16    1
    22    14    17    1
    23    18    22    1
    24    18    19    1
    25    19    20    1
    26    19    32    1
    27    19    33    1
    28    20    21    1
    29    20    34    1
    30    20    35    1
    31    21    27    1
    32    21    22    1
    33    21    23    1
    34    22    36    1
    35    22    37    1
    36    23    24    1
    37    23    38    1
    38    23    39    1
    39    24    25    1
    40    24    40    1
    41    24    41    1
    42    25    26    1
    43    25    42    1
    44    25    43    1
    45    26    27    1
    46    27    44    1
    47    27    45    1
@<TRIPOS>SUBSTRUCTURE
     1 ZINC000375477402        1 TEMP              0 ****  ****    0 ROOT


##########                                Name:    ZINC000437443367
##########                DOCK_Rotatable_Bonds:                   8
##########                         Heavy_Atoms:                  24
##########                    Molecular_Weight:             334.434
##########                DOCK_Rotatable_Bonds:                   8
##########                       Formal_Charge:          -0.0500003
##########                     HBond_Acceptors:                   5
##########                        HBond_Donors:                   1
##########                         Heavy_Atoms:                  24
##########                          Grid_Score:          -24.626602
##########                     Grid_vdw_energy:          -24.343775
##########                      Grid_es_energy:           -0.282827
##########           Internal_energy_repulsive:           27.483736

@<TRIPOS>MOLECULE
ZINC000437443367
 51 52 1 0 0
SMALL
USER_CHARGES


@<TRIPOS>ATOM
      1 C1         -9.7478    1.0699   54.5414 C.3     1  ZINC000437443367   -0.1200
      2 C2         -9.9837    0.0157   55.5920 C.ar    1  ZINC000437443367   -0.1000
      3 C3         -9.9147    0.3479   56.9303 C.ar    1  ZINC000437443367   -0.1200
      4 C4        -10.1323   -0.6246   57.8984 C.ar    1  ZINC000437443367    0.1400
      5 N5        -10.0634   -0.2905   59.2543 N.am    1  ZINC000437443367   -0.6400
      6 C6         -8.8709   -0.0243   59.8229 C.2     1  ZINC000437443367    0.5000
      7 O7         -7.8566   -0.0745   59.1581 O.2     1  ZINC000437443367   -0.4800
      8 C8         -8.7974    0.3326   61.2713 C.2     1  ZINC000437443367    0.5100
      9 O9         -8.4803   -0.5072   62.0879 O.2     1  ZINC000437443367   -0.5200
     10 N10        -9.0831    1.5876   61.6714 N.am    1  ZINC000437443367   -0.5700
     11 C11        -9.0110    1.9378   63.0921 C.3     1  ZINC000437443367    0.0900
     12 C12       -10.2054    1.3282   63.8289 C.3     1  ZINC000437443367   -0.1200
     13 C13        -9.9851    1.4413   65.3387 C.3     1  ZINC000437443367   -0.0900
     14 C14        -9.0664    0.3106   65.8062 C.3     1  ZINC000437443367   -0.1400
     15 C15        -9.3380    2.7901   65.6600 C.3     1  ZINC000437443367   -0.1500
     16 C16        -9.4657    2.6013   60.6855 C.3     1  ZINC000437443367    0.1300
     17 C17       -10.9336    3.0229   60.9035 C.3     1  ZINC000437443367   -0.1300
     18 C18       -10.8367    4.2985   61.7769 C.3     1  ZINC000437443367   -0.1300
     19 C19        -9.5911    5.0148   61.1987 C.3     1  ZINC000437443367   -0.1200
     20 C20        -8.6122    3.8678   60.8732 C.3     1  ZINC000437443367   -0.1400
     21 C21       -10.4189   -1.9291   57.5173 C.ar    1  ZINC000437443367   -0.1100
     22 C22       -10.4869   -2.2568   56.1774 C.ar    1  ZINC000437443367   -0.1300
     23 C23       -10.2752   -1.2847   55.2142 C.ar    1  ZINC000437443367    0.0800
     24 F24       -10.3422   -1.6074   53.9040 F       1  ZINC000437443367   -0.1400
     25 H25       -10.6936    1.5489   54.2884 H       1  ZINC000437443367    0.0800
     26 H26        -9.0537    1.8172   54.9260 H       1  ZINC000437443367    0.0700
     27 H27        -9.3254    0.6065   53.6499 H       1  ZINC000437443367    0.0700
     28 H28        -9.6914    1.3627   57.2244 H       1  ZINC000437443367    0.1400
     29 H29       -10.8740   -0.2502   59.7856 H       1  ZINC000437443367    0.4200
     30 H30        -8.0854    1.5484   63.5158 H       1  ZINC000437443367    0.0900
     31 H31        -9.0323    3.0223   63.2005 H       1  ZINC000437443367    0.1000
     32 H32       -11.1141    1.8633   63.5532 H       1  ZINC000437443367    0.0700
     33 H33       -10.3045    0.2781   63.5538 H       1  ZINC000437443367    0.0600
     34 H34       -10.9436    1.3666   65.8523 H       1  ZINC000437443367    0.0600
     35 H35        -8.1080    0.3854   65.2925 H       1  ZINC000437443367    0.0600
     36 H36        -8.9095    0.3913   66.8817 H       1  ZINC000437443367    0.0400
     37 H37        -9.5275   -0.6502   65.5773 H       1  ZINC000437443367    0.0600
     38 H38        -9.9925    3.5956   65.3269 H       1  ZINC000437443367    0.0500
     39 H39        -9.1811    2.8707   66.7357 H       1  ZINC000437443367    0.0500
     40 H40        -8.3797    2.8648   65.1463 H       1  ZINC000437443367    0.0500
     41 H41        -9.3351    2.2090   59.6769 H       1  ZINC000437443367    0.1000
     42 H42       -11.4113    3.2488   59.9503 H       1  ZINC000437443367    0.0800
     43 H43       -11.4809    2.2409   61.4298 H       1  ZINC000437443367    0.0700
     44 H44       -11.7270    4.9161   61.6588 H       1  ZINC000437443367    0.0700
     45 H45       -10.6816    4.0387   62.8241 H       1  ZINC000437443367    0.0700
     46 H46        -9.8519    5.5623   60.2930 H       1  ZINC000437443367    0.0700
     47 H47        -9.1587    5.6864   61.9404 H       1  ZINC000437443367    0.0700
     48 H48        -7.9131    3.7282   61.6978 H       1  ZINC000437443367    0.0800
     49 H49        -8.0679    4.0906   59.9554 H       1  ZINC000437443367    0.0700
     50 H50       -10.5881   -2.6867   58.2681 H       1  ZINC000437443367    0.1600
     51 H51       -10.7097   -3.2711   55.8805 H       1  ZINC000437443367    0.1400
@<TRIPOS>BOND
     1     1     2    1
     2     1    25    1
     3     1    26    1
     4     1    27    1
     5     2    23   ar
     6     2     3   ar
     7     3     4   ar
     8     3    28    1
     9     4     5    1
    10     4    21   ar
    11     5     6   am
    12     5    29    1
    13     6     7    2
    14     6     8    1
    15     8     9    2
    16     8    10   am
    17    10    11    1
    18    10    16    1
    19    11    12    1
    20    11    30    1
    21    11    31    1
    22    12    13    1
    23    12    32    1
    24    12    33    1
    25    13    14    1
    26    13    15    1
    27    13    34    1
    28    14    35    1
    29    14    36    1
    30    14    37    1
    31    15    38    1
    32    15    39    1
    33    15    40    1
    34    16    20    1
    35    16    17    1
    36    16    41    1
    37    17    18    1
    38    17    42    1
    39    17    43    1
    40    18    19    1
    41    18    44    1
    42    18    45    1
    43    19    20    1
    44    19    46    1
    45    19    47    1
    46    20    48    1
    47    20    49    1
    48    21    22   ar
    49    21    50    1
    50    22    23   ar
    51    22    51    1
    52    23    24    1
@<TRIPOS>SUBSTRUCTURE
     1 ZINC000437443367        1 TEMP              0 ****  ****    0 ROOT


##########                                Name:    ZINC001091652821
##########                DOCK_Rotatable_Bonds:                   4
##########                         Heavy_Atoms:                  24
##########                    Molecular_Weight:             345.465
##########                DOCK_Rotatable_Bonds:                   4
##########                       Formal_Charge:          -0.0199997
##########                     HBond_Acceptors:                   6
##########                        HBond_Donors:                   0
##########                         Heavy_Atoms:                  24
##########                          Grid_Score:          -24.607552
##########                     Grid_vdw_energy:          -24.993687
##########                      Grid_es_energy:            0.386136
##########           Internal_energy_repulsive:            4.057433

@<TRIPOS>MOLECULE
ZINC001091652821
 47 50 1 0 0
SMALL
USER_CHARGES


@<TRIPOS>ATOM
      1 C1         -9.2732   -0.3712   61.9542 C.3     1  ZINC001091652821   -0.1000
      2 C2        -10.3022   -0.6929   60.9013 C.2     1  ZINC001091652821   -0.1200
      3 C3        -11.6150   -0.5381   61.1092 C.2     1  ZINC001091652821   -0.2400
      4 S4        -12.5089   -0.9878   59.7274 S.3     1  ZINC001091652821    0.2100
      5 C5        -11.0403   -1.3956   58.8507 C.2     1  ZINC001091652821   -0.2700
      6 C6        -10.9830   -1.9001   57.4756 C.2     1  ZINC001091652821    0.6100
      7 O7        -10.6187   -3.0413   57.2609 O.2     1  ZINC001091652821   -0.5200
      8 N8        -11.3337   -1.1001   56.4492 N.am    1  ZINC001091652821   -0.6200
      9 C9        -11.7871    0.2975   56.5381 C.3     1  ZINC001091652821    0.0900
     10 C10       -11.3141    0.9902   55.2496 C.3     1  ZINC001091652821   -0.0900
     11 H11       -12.0574    1.6880   54.8638 H       1  ZINC001091652821    0.1100
     12 C12        -9.9578    1.6765   55.5145 C.3     1  ZINC001091652821    0.0400
     13 N13        -9.1316    1.3502   54.3241 N.3     1  ZINC001091652821   -0.5000
     14 C14        -7.7003    1.4957   54.6207 C.3     1  ZINC001091652821    0.1200
     15 C15        -7.0062    2.1347   53.4457 C.2     1  ZINC001091652821    0.0000
     16 C16        -7.3609    2.0169   52.1554 C.2     1  ZINC001091652821   -0.0800
     17 O17        -6.4822    2.7411   51.4349 O.3     1  ZINC001091652821   -0.2000
     18 C18        -5.6072    3.2889   52.2886 C.2     1  ZINC001091652821    0.1900
     19 C19        -4.4516    4.1791   51.9101 C.3     1  ZINC001091652821   -0.0600
     20 N20        -5.9234    2.9304   53.5002 N.2     1  ZINC001091652821   -0.4700
     21 C21        -9.4713   -0.0635   54.0210 C.3     1  ZINC001091652821    0.0400
     22 C22       -11.0189   -0.1598   54.2524 C.3     1  ZINC001091652821   -0.0700
     23 C23       -11.8035   -0.0442   52.9440 C.3     1  ZINC001091652821   -0.1300
     24 C24       -11.3321   -1.4515   55.0197 C.3     1  ZINC001091652821    0.1200
     25 C25        -9.9604   -1.1613   59.6548 C.2     1  ZINC001091652821   -0.0500
     26 H26        -8.9709    0.6718   61.8601 H       1  ZINC001091652821    0.0700
     27 H27        -9.7008   -0.5377   62.9430 H       1  ZINC001091652821    0.0700
     28 H28        -8.4037   -1.0149   61.8213 H       1  ZINC001091652821    0.0700
     29 H29       -12.0506   -0.1771   62.0292 H       1  ZINC001091652821    0.1700
     30 H30       -12.8745    0.3344   56.6052 H       1  ZINC001091652821    0.0800
     31 H31       -11.3416    0.7806   57.4077 H       1  ZINC001091652821    0.0800
     32 H32       -10.0884    2.7551   55.6020 H       1  ZINC001091652821    0.0800
     33 H33        -9.4984    1.2742   56.4174 H       1  ZINC001091652821    0.0500
     34 H34        -7.5740    2.1236   55.5027 H       1  ZINC001091652821    0.0500
     35 H35        -7.2665    0.5135   54.8088 H       1  ZINC001091652821    0.1000
     36 H36        -8.1936    1.4483   51.7684 H       1  ZINC001091652821    0.2100
     37 H37        -4.4339    4.3113   50.8282 H       1  ZINC001091652821    0.0900
     38 H38        -4.5671    5.1495   52.3928 H       1  ZINC001091652821    0.1000
     39 H39        -3.5178    3.7203   52.2353 H       1  ZINC001091652821    0.1000
     40 H40        -9.2354   -0.2967   52.9827 H       1  ZINC001091652821    0.0900
     41 H41        -8.9369   -0.7351   54.6929 H       1  ZINC001091652821    0.0500
     42 H42       -11.5227   -0.8606   52.2787 H       1  ZINC001091652821    0.0600
     43 H43       -12.8715   -0.0983   53.1549 H       1  ZINC001091652821    0.0600
     44 H44       -11.5752    0.9086   52.4664 H       1  ZINC001091652821    0.0700
     45 H45       -10.5558   -2.1940   54.8348 H       1  ZINC001091652821    0.0900
     46 H46       -12.3034   -1.8413   54.7151 H       1  ZINC001091652821    0.0800
     47 H47        -8.9406   -1.3345   59.3446 H       1  ZINC001091652821    0.1500
@<TRIPOS>BOND
     1     1     2    1
     2     1    26    1
     3     1    27    1
     4     1    28    1
     5     2    25    1
     6     2     3    2
     7     3     4    1
     8     3    29    1
     9     4     5    1
    10     5     6    1
    11     5    25    2
    12     6     7    2
    13     6     8   am
    14     8    24    1
    15     8     9    1
    16     9    10    1
    17     9    30    1
    18     9    31    1
    19    10    11    1
    20    10    22    1
    21    10    12    1
    22    12    13    1
    23    12    32    1
    24    12    33    1
    25    13    14    1
    26    13    21    1
    27    14    15    1
    28    14    34    1
    29    14    35    1
    30    15    20    1
    31    15    16    2
    32    16    17    1
    33    16    36    1
    34    17    18    1
    35    18    19    1
    36    18    20    2
    37    19    37    1
    38    19    38    1
    39    19    39    1
    40    21    22    1
    41    21    40    1
    42    21    41    1
    43    22    23    1
    44    22    24    1
    45    23    42    1
    46    23    43    1
    47    23    44    1
    48    24    45    1
    49    24    46    1
    50    25    47    1
@<TRIPOS>SUBSTRUCTURE
     1 ZINC001091652821        1 TEMP              0 ****  ****    0 ROOT


##########                                Name:    ZINC001231746020
##########                DOCK_Rotatable_Bonds:                   3
##########                         Heavy_Atoms:                  19
##########                    Molecular_Weight:             348.667
##########                DOCK_Rotatable_Bonds:                   3
##########                       Formal_Charge:          -0.0399997
##########                     HBond_Acceptors:                   4
##########                        HBond_Donors:                   2
##########                         Heavy_Atoms:                  19
##########                          Grid_Score:          -24.603786
##########                     Grid_vdw_energy:          -21.686653
##########                      Grid_es_energy:           -2.917132
##########           Internal_energy_repulsive:           10.817583

@<TRIPOS>MOLECULE
ZINC001231746020
 38 39 1 0 0
SMALL
USER_CHARGES


@<TRIPOS>ATOM
      1 C1         -9.8656    3.0094   56.0983 C.3     1  ZINC001231746020   -0.1500
      2 C2         -9.7595    2.0068   57.2492 C.3     1  ZINC001231746020   -0.0900
      3 H3        -10.6483    2.0756   57.8765 H       1  ZINC001231746020    0.0800
      4 C4         -9.6405    0.6126   56.6942 C.3     1  ZINC001231746020   -0.1400
      5 C5        -10.2697   -0.4636   57.5972 C.3     1  ZINC001231746020   -0.0100
      6 N6         -9.9724   -0.2775   59.0337 N.4     1  ZINC001231746020   -0.3800
      7 H7        -10.5764    0.4412   59.4036 H       1  ZINC001231746020    0.4100
      8 C8        -10.2372   -1.5359   59.7436 C.3     1  ZINC001231746020    0.0700
      9 C9        -11.7075   -1.8573   59.6651 C.ar    1  ZINC001231746020   -0.3100
     10 C10       -12.5887   -1.2796   60.5600 C.ar    1  ZINC001231746020   -0.0300
     11 C11       -13.9383   -1.5723   60.4900 C.ar    1  ZINC001231746020   -0.1600
     12 Cl12      -15.0442   -0.8465   61.6142 Cl      1  ZINC001231746020   -0.0800
     13 C13       -14.4077   -2.4473   59.5205 C.ar    1  ZINC001231746020    0.3100
     14 O14       -15.7341   -2.7366   59.4490 O.3     1  ZINC001231746020   -0.6300
     15 C15       -13.5206   -3.0261   58.6237 C.ar    1  ZINC001231746020   -0.2100
     16 Br16      -14.1555   -4.2190   57.3008 Br      1  ZINC001231746020   -0.0600
     17 C17       -12.1734   -2.7251   58.6945 C.ar    1  ZINC001231746020   -0.0200
     18 C18        -8.5992    0.1061   59.2543 C.3     1  ZINC001231746020   -0.0200
     19 C19        -8.5517    1.6374   59.3822 C.3     1  ZINC001231746020   -0.1800
     20 C20        -8.4990    2.3182   58.0943 C.3     1  ZINC001231746020    0.1000
     21 H21        -8.4361    3.3936   58.2604 H       1  ZINC001231746020    0.0700
     22 O22        -7.3380    1.8857   57.3822 O.3     1  ZINC001231746020   -0.5600
     23 H23       -10.7466    2.7818   55.4982 H       1  ZINC001231746020    0.0600
     24 H24        -8.9740    2.9424   55.4748 H       1  ZINC001231746020    0.0700
     25 H25        -9.9517    4.0183   56.5021 H       1  ZINC001231746020    0.0600
     26 H26       -10.1301    0.5814   55.7209 H       1  ZINC001231746020    0.1000
     27 H27        -8.5843    0.3792   56.5603 H       1  ZINC001231746020    0.1000
     28 H28       -11.3508   -0.4458   57.4596 H       1  ZINC001231746020    0.1200
     29 H29        -9.8974   -1.4400   57.2876 H       1  ZINC001231746020    0.1200
     30 H30        -9.6643   -2.3407   59.2827 H       1  ZINC001231746020    0.1200
     31 H31        -9.9432   -1.4327   60.7881 H       1  ZINC001231746020    0.1200
     32 H32       -12.2226   -0.5988   61.3144 H       1  ZINC001231746020    0.1100
     33 H33       -11.4833   -3.1712   57.9936 H       1  ZINC001231746020    0.1100
     34 H34        -8.2311   -0.3523   60.1722 H       1  ZINC001231746020    0.1400
     35 H35        -7.9868   -0.2135   58.4111 H       1  ZINC001231746020    0.1300
     36 H36        -9.4393    1.9718   59.9192 H       1  ZINC001231746020    0.0900
     37 H37        -7.6691    1.9137   59.9591 H       1  ZINC001231746020    0.1100
     38 H38        -7.2648    2.2517   56.4902 H       1  ZINC001231746020    0.3900
@<TRIPOS>BOND
     1     1     2    1
     2     1    23    1
     3     1    24    1
     4     1    25    1
     5     2     3    1
     6     2    20    1
     7     2     4    1
     8     4     5    1
     9     4    26    1
    10     4    27    1
    11     5     6    1
    12     5    28    1
    13     5    29    1
    14     6     7    1
    15     6     8    1
    16     6    18    1
    17     8     9    1
    18     8    30    1
    19     8    31    1
    20     9    17   ar
    21     9    10   ar
    22    10    11   ar
    23    10    32    1
    24    11    12    1
    25    11    13   ar
    26    13    14    1
    27    13    15   ar
    28    15    16    1
    29    15    17   ar
    30    17    33    1
    31    18    19    1
    32    18    34    1
    33    18    35    1
    34    19    20    1
    35    19    36    1
    36    19    37    1
    37    20    21    1
    38    20    22    1
    39    22    38    1
@<TRIPOS>SUBSTRUCTURE
     1 ZINC001231746020        1 TEMP              0 ****  ****    0 ROOT


##########                                Name:    ZINC000176150038
##########                DOCK_Rotatable_Bonds:                   4
##########                         Heavy_Atoms:                  23
##########                    Molecular_Weight:             333.712
##########                DOCK_Rotatable_Bonds:                   4
##########                       Formal_Charge:        -2.23517e-07
##########                     HBond_Acceptors:                  10
##########                        HBond_Donors:                   1
##########                         Heavy_Atoms:                  23
##########                          Grid_Score:          -24.492212
##########                     Grid_vdw_energy:          -22.462515
##########                      Grid_es_energy:           -2.029697
##########           Internal_energy_repulsive:           20.685440

@<TRIPOS>MOLECULE
ZINC000176150038
 32 34 1 0 0
SMALL
USER_CHARGES


@<TRIPOS>ATOM
      1 C1         -8.5130   -1.0048   59.8683 C.3     1  ZINC000176150038   -0.0900
      2 C2         -9.3804   -1.1977   58.6511 C.2     1  ZINC000176150038    0.2600
      3 N3        -10.1709   -2.2121   58.4155 N.2     1  ZINC000176150038   -0.3300
      4 N4        -10.7692   -2.0676   57.2883 N.2     1  ZINC000176150038   -0.0300
      5 N5        -10.4072   -0.9627   56.7305 N.2     1  ZINC000176150038   -0.0700
      6 N6         -9.4901   -0.3520   57.6039 N.pl3   1  ZINC000176150038   -0.3300
      7 C7         -8.8252    0.8703   57.4226 C.ar    1  ZINC000176150038    0.1400
      8 C8         -8.7605    1.7864   58.4635 C.ar    1  ZINC000176150038   -0.1000
      9 C9         -8.1056    2.9907   58.2870 C.ar    1  ZINC000176150038   -0.1100
     10 C10        -7.5130    3.2869   57.0732 C.ar    1  ZINC000176150038    0.1000
     11 F11        -6.8731    4.4646   56.9035 F       1  ZINC000176150038   -0.1200
     12 C12        -7.5751    2.3719   56.0266 C.ar    1  ZINC000176150038    0.1300
     13 N13        -6.9756    2.6709   54.7980 N.am    1  ZINC000176150038   -0.6500
     14 C14        -7.7413    2.9587   53.7270 C.2     1  ZINC000176150038    0.5700
     15 O15        -8.9522    2.9588   53.8282 O.2     1  ZINC000176150038   -0.4800
     16 C16        -7.1059    3.2757   52.4247 C.ar    1  ZINC000176150038    0.1400
     17 N17        -7.7960    3.1698   51.2912 N.ar    1  ZINC000176150038   -0.4800
     18 C18        -7.2363    3.4504   50.1344 C.ar    1  ZINC000176150038    0.3000
     19 N19        -5.9810    3.8449   50.0434 N.ar    1  ZINC000176150038   -0.4800
     20 C20        -5.2274    3.9755   51.1214 C.ar    1  ZINC000176150038    0.1700
     21 C21        -5.7749    3.6959   52.3672 C.ar    1  ZINC000176150038   -0.1000
     22 Cl22       -4.8267    3.8527   53.8129 Cl      1  ZINC000176150038    0.0100
     23 C23        -8.2275    1.1610   56.2047 C.ar    1  ZINC000176150038   -0.0800
     24 H24        -9.0760   -0.4725   60.6350 H       1  ZINC000176150038    0.1100
     25 H25        -8.2053   -1.9772   60.2528 H       1  ZINC000176150038    0.1100
     26 H26        -7.6305   -0.4253   59.5974 H       1  ZINC000176150038    0.0900
     27 H27        -9.2228    1.5580   59.4124 H       1  ZINC000176150038    0.1500
     28 H28        -8.0570    3.7019   59.0984 H       1  ZINC000176150038    0.1600
     29 H29        -6.0089    2.6709   54.7174 H       1  ZINC000176150038    0.4300
     30 H30        -7.8220    3.3545   49.2321 H       1  ZINC000176150038    0.2200
     31 H31        -4.2006    4.2992   51.0352 H       1  ZINC000176150038    0.1900
     32 H32        -8.2772    0.4490   55.3941 H       1  ZINC000176150038    0.1700
@<TRIPOS>BOND
     1     1     2    1
     2     1    24    1
     3     1    25    1
     4     1    26    1
     5     2     6    1
     6     2     3    2
     7     3     4    1
     8     4     5    2
     9     5     6    1
    10     6     7    1
    11     7    23   ar
    12     7     8   ar
    13     8     9   ar
    14     8    27    1
    15     9    10   ar
    16     9    28    1
    17    10    11    1
    18    10    12   ar
    19    12    13    1
    20    12    23   ar
    21    13    14   am
    22    13    29    1
    23    14    15    2
    24    14    16    1
    25    16    21   ar
    26    16    17   ar
    27    17    18   ar
    28    18    19   ar
    29    18    30    1
    30    19    20   ar
    31    20    21   ar
    32    20    31    1
    33    21    22    1
    34    23    32    1
@<TRIPOS>SUBSTRUCTURE
     1 ZINC000176150038        1 TEMP              0 ****  ****    0 ROOT


##########                                Name:    ZINC001013196242
##########                DOCK_Rotatable_Bonds:                   5
##########                         Heavy_Atoms:                  24
##########                    Molecular_Weight:              349.86
##########                DOCK_Rotatable_Bonds:                   5
##########                       Formal_Charge:        -3.05474e-07
##########                     HBond_Acceptors:                   6
##########                        HBond_Donors:                   1
##########                         Heavy_Atoms:                  24
##########                          Grid_Score:          -24.469475
##########                     Grid_vdw_energy:          -25.328386
##########                      Grid_es_energy:            0.858912
##########           Internal_energy_repulsive:           15.077650

@<TRIPOS>MOLECULE
ZINC001013196242
 48 51 1 0 0
SMALL
USER_CHARGES


@<TRIPOS>ATOM
      1 C1        -10.8134    1.3404   56.3558 C.3     1  ZINC001013196242   -0.1600
      2 C2         -9.5760    0.6748   56.9615 C.3     1  ZINC001013196242    0.1400
      3 H3         -9.4105   -0.2954   56.4931 H       1  ZINC001013196242    0.0800
      4 C4         -9.7669    0.4976   58.4826 C.3     1  ZINC001013196242   -0.1400
      5 C5         -8.3548    0.8035   59.0480 C.3     1  ZINC001013196242    0.1300
      6 H6         -7.7105   -0.0734   58.9853 H       1  ZINC001013196242    0.1100
      7 N7         -8.4359    1.2947   60.4258 N.am    1  ZINC001013196242   -0.7200
      8 C8         -8.5983    0.4253   61.4427 C.2     1  ZINC001013196242    0.5400
      9 O9         -8.6758   -0.7638   61.2173 O.2     1  ZINC001013196242   -0.5200
     10 C10        -8.6836    0.9308   62.8598 C.3     1  ZINC001013196242   -0.1400
     11 C11        -9.6258    2.1359   63.0281 C.3     1  ZINC001013196242   -0.0800
     12 C12       -10.7452    1.1194   63.2777 C.3     1  ZINC001013196242   -0.1600
     13 C13       -12.1304    1.3564   63.8688 C.3     1  ZINC001013196242   -0.1700
     14 C14       -11.9844    0.8433   62.4336 C.3     1  ZINC001013196242   -0.1400
     15 C15        -9.6646    0.1356   63.7393 C.3     1  ZINC001013196242   -0.0800
     16 C16        -7.8701    1.9183   58.0877 C.3     1  ZINC001013196242    0.0800
     17 N17        -8.3990    1.5331   56.7630 N.am    1  ZINC001013196242   -0.6000
     18 C18        -7.8877    1.9083   55.5738 C.2     1  ZINC001013196242    0.6100
     19 O19        -6.9048    2.6247   55.5328 O.2     1  ZINC001013196242   -0.5400
     20 C20        -8.5159    1.4531   54.3291 C.2     1  ZINC001013196242   -0.0400
     21 C21        -8.7641    0.1444   53.9727 C.2     1  ZINC001013196242   -0.1400
     22 C22        -9.3725    0.1695   52.7133 C.2     1  ZINC001013196242   -0.1200
     23 Cl23       -9.8940   -1.2132   51.8024 Cl      1  ZINC001013196242   -0.0400
     24 C24        -9.4829    1.4648   52.3309 C.2     1  ZINC001013196242    0.0400
     25 N25        -8.9704    2.2550   53.3068 N.pl3   1  ZINC001013196242   -0.4000
     26 C26        -8.9040    3.7182   53.2747 C.3     1  ZINC001013196242    0.0700
     27 H27       -10.6692    1.4674   55.2829 H       1  ZINC001013196242    0.0700
     28 H28       -11.6870    0.7132   56.5333 H       1  ZINC001013196242    0.0700
     29 H29       -10.9655    2.3150   56.8198 H       1  ZINC001013196242    0.0600
     30 H30       -10.4980    1.2098   58.8650 H       1  ZINC001013196242    0.0900
     31 H31       -10.0632   -0.5247   58.7175 H       1  ZINC001013196242    0.0900
     32 H32        -8.3727    2.2458   60.6061 H       1  ZINC001013196242    0.4000
     33 H33        -7.7047    1.0736   63.3176 H       1  ZINC001013196242    0.1000
     34 H34        -9.3947    2.7536   63.8960 H       1  ZINC001013196242    0.1000
     35 H35        -9.7587    2.7175   62.1160 H       1  ZINC001013196242    0.0700
     36 H36       -12.4838    0.6521   64.6218 H       1  ZINC001013196242    0.1000
     37 H37       -12.4501    2.3896   64.0041 H       1  ZINC001013196242    0.0900
     38 H38       -12.2080    1.5391   61.6249 H       1  ZINC001013196242    0.0900
     39 H39       -12.2417   -0.1986   62.2426 H       1  ZINC001013196242    0.1000
     40 H40        -9.8287   -0.8862   63.3974 H       1  ZINC001013196242    0.0800
     41 H41        -9.4443    0.1966   64.8051 H       1  ZINC001013196242    0.0900
     42 H42        -8.2740    2.8837   58.3927 H       1  ZINC001013196242    0.0800
     43 H43        -6.7808    1.9519   58.0647 H       1  ZINC001013196242    0.1000
     44 H44        -8.5319   -0.7345   54.5558 H       1  ZINC001013196242    0.1600
     45 H45        -9.9122    1.8115   51.4025 H       1  ZINC001013196242    0.1800
     46 H46        -9.7648    4.1325   53.7995 H       1  ZINC001013196242    0.0800
     47 H47        -7.9872    4.0511   53.7611 H       1  ZINC001013196242    0.1000
     48 H48        -8.9108    4.0596   52.2396 H       1  ZINC001013196242    0.0900
@<TRIPOS>BOND
     1     1     2    1
     2     1    27    1
     3     1    28    1
     4     1    29    1
     5     2     3    1
     6     2    17    1
     7     2     4    1
     8     4     5    1
     9     4    30    1
    10     4    31    1
    11     5     6    1
    12     5     7    1
    13     5    16    1
    14     7     8   am
    15     7    32    1
    16     8     9    2
    17     8    10    1
    18    10    15    1
    19    10    11    1
    20    10    33    1
    21    11    12    1
    22    11    34    1
    23    11    35    1
    24    12    14    1
    25    12    13    1
    26    12    15    1
    27    13    14    1
    28    13    36    1
    29    13    37    1
    30    14    38    1
    31    14    39    1
    32    15    40    1
    33    15    41    1
    34    16    17    1
    35    16    42    1
    36    16    43    1
    37    17    18   am
    38    18    19    2
    39    18    20    1
    40    20    25    1
    41    20    21    2
    42    21    22    1
    43    21    44    1
    44    22    23    1
    45    22    24    2
    46    24    25    1
    47    24    45    1
    48    25    26    1
    49    26    46    1
    50    26    47    1
    51    26    48    1
@<TRIPOS>SUBSTRUCTURE
     1 ZINC001013196242        1 TEMP              0 ****  ****    0 ROOT


##########                                Name:    ZINC000464706598
##########                DOCK_Rotatable_Bonds:                   4
##########                         Heavy_Atoms:                  26
##########                    Molecular_Weight:             412.286
##########                DOCK_Rotatable_Bonds:                   4
##########                       Formal_Charge:           0.0100001
##########                     HBond_Acceptors:                   5
##########                        HBond_Donors:                   0
##########                         Heavy_Atoms:                  26
##########                          Grid_Score:          -24.185728
##########                     Grid_vdw_energy:          -23.762465
##########                      Grid_es_energy:           -0.423264
##########           Internal_energy_repulsive:           56.788868

@<TRIPOS>MOLECULE
ZINC000464706598
 44 47 1 0 0
SMALL
USER_CHARGES


@<TRIPOS>ATOM
      1 O1        -10.2366   -1.3332   55.7642 O.2     1  ZINC000464706598   -0.5000
      2 C2        -10.6510   -0.6314   54.8617 C.2     1  ZINC000464706598    0.5900
      3 C3         -9.7110   -0.0643   53.8778 C.2     1  ZINC000464706598   -0.2800
      4 C4         -8.8289    0.9760   54.0924 C.2     1  ZINC000464706598    0.1300
      5 N5         -8.1594    1.1786   52.9432 N.pl3   1  ZINC000464706598   -0.3100
      6 C6         -7.1671    2.1460   52.7327 C.ar    1  ZINC000464706598    0.1700
      7 C7         -6.4938    2.6984   53.8141 C.ar    1  ZINC000464706598   -0.1300
      8 C8         -5.5163    3.6510   53.6039 C.ar    1  ZINC000464706598   -0.0600
      9 C9         -5.2080    4.0555   52.3171 C.ar    1  ZINC000464706598   -0.1000
     10 Br10       -3.8694    5.3606   52.0331 Br      1  ZINC000464706598   -0.0400
     11 C11        -5.8771    3.5062   51.2377 C.ar    1  ZINC000464706598   -0.0700
     12 C12        -6.8518    2.5494   51.4421 C.ar    1  ZINC000464706598   -0.1100
     13 N13        -8.6206    0.2597   51.9939 N.2     1  ZINC000464706598   -0.2800
     14 C14        -9.5397   -0.4878   52.5404 C.2     1  ZINC000464706598    0.0700
     15 N15       -11.9704   -0.3767   54.7575 N.am    1  ZINC000464706598   -0.6100
     16 C16       -12.4960    0.4644   53.6705 C.3     1  ZINC000464706598    0.0400
     17 C17       -13.4015    1.5380   54.2847 C.3     1  ZINC000464706598    0.0500
     18 O18       -14.3710    0.9105   55.1273 O.3     1  ZINC000464706598   -0.3700
     19 C19       -13.8123    0.2099   56.2412 C.3     1  ZINC000464706598    0.0500
     20 C20       -12.9285   -0.9365   55.7241 C.3     1  ZINC000464706598    0.1600
     21 H21       -13.5501   -1.6892   55.2392 H       1  ZINC000464706598    0.0900
     22 C22       -12.1811   -1.5599   56.8746 C.ar    1  ZINC000464706598   -0.0500
     23 C23       -12.0452   -2.9338   56.9471 C.ar    1  ZINC000464706598   -0.1000
     24 C24       -11.3597   -3.5057   58.0024 C.ar    1  ZINC000464706598   -0.1100
     25 C25       -10.8097   -2.7039   58.9850 C.ar    1  ZINC000464706598   -0.1200
     26 C26       -10.9447   -1.3301   58.9120 C.ar    1  ZINC000464706598   -0.1100
     27 C27       -11.6265   -0.7579   57.8544 C.ar    1  ZINC000464706598   -0.1000
     28 H28        -8.7007    1.5262   55.0128 H       1  ZINC000464706598    0.1900
     29 H29        -6.7345    2.3836   54.8188 H       1  ZINC000464706598    0.1400
     30 H30        -4.9923    4.0811   54.4447 H       1  ZINC000464706598    0.1500
     31 H31        -5.6344    3.8233   50.2343 H       1  ZINC000464706598    0.1500
     32 H32        -7.3736    2.1207   50.5993 H       1  ZINC000464706598    0.1500
     33 H33       -10.0799   -1.2864   52.0539 H       1  ZINC000464706598    0.2100
     34 H34       -11.6698    0.9396   53.1417 H       1  ZINC000464706598    0.1200
     35 H35       -13.0718   -0.1490   52.9775 H       1  ZINC000464706598    0.0800
     36 H36       -12.7990    2.2287   54.8746 H       1  ZINC000464706598    0.0600
     37 H37       -13.9092    2.0844   53.4898 H       1  ZINC000464706598    0.1100
     38 H38       -13.2112    0.8956   56.8384 H       1  ZINC000464706598    0.0600
     39 H39       -14.6155   -0.1994   56.8540 H       1  ZINC000464706598    0.1100
     40 H40       -12.4750   -3.5602   56.1794 H       1  ZINC000464706598    0.1100
     41 H41       -11.2541   -4.5791   58.0595 H       1  ZINC000464706598    0.1200
     42 H42       -10.2746   -3.1509   59.8099 H       1  ZINC000464706598    0.1200
     43 H43       -10.5153   -0.7037   59.6799 H       1  ZINC000464706598    0.1200
     44 H44       -11.7321    0.3154   57.7974 H       1  ZINC000464706598    0.1100
@<TRIPOS>BOND
     1     1     2    2
     2     2     3    1
     3     2    15   am
     4     3    14    1
     5     3     4    2
     6     4     5    1
     7     4    28    1
     8     5     6    1
     9     5    13    1
    10     6    12   ar
    11     6     7   ar
    12     7     8   ar
    13     7    29    1
    14     8     9   ar
    15     8    30    1
    16     9    10    1
    17     9    11   ar
    18    11    12   ar
    19    11    31    1
    20    12    32    1
    21    13    14    2
    22    14    33    1
    23    15    20    1
    24    15    16    1
    25    16    17    1
    26    16    34    1
    27    16    35    1
    28    17    18    1
    29    17    36    1
    30    17    37    1
    31    18    19    1
    32    19    20    1
    33    19    38    1
    34    19    39    1
    35    20    21    1
    36    20    22    1
    37    22    27   ar
    38    22    23   ar
    39    23    24   ar
    40    23    40    1
    41    24    25   ar
    42    24    41    1
    43    25    26   ar
    44    25    42    1
    45    26    27   ar
    46    26    43    1
    47    27    44    1
@<TRIPOS>SUBSTRUCTURE
     1 ZINC000464706598        1 TEMP              0 ****  ****    0 ROOT


##########                                Name:    ZINC000493443319
##########                DOCK_Rotatable_Bonds:                   6
##########                         Heavy_Atoms:                  25
##########                    Molecular_Weight:             348.399
##########                DOCK_Rotatable_Bonds:                   6
##########                       Formal_Charge:        -3.27826e-07
##########                     HBond_Acceptors:                   7
##########                        HBond_Donors:                   0
##########                         Heavy_Atoms:                  25
##########                          Grid_Score:          -24.117807
##########                     Grid_vdw_energy:          -24.240704
##########                      Grid_es_energy:            0.122896
##########           Internal_energy_repulsive:           51.792747

@<TRIPOS>MOLECULE
ZINC000493443319
 49 51 1 0 0
SMALL
USER_CHARGES


@<TRIPOS>ATOM
      1 C1        -11.2713   -2.1064   56.4374 C.3     1  <0>        -0.1500
      2 C2        -10.3635   -1.4271   55.4101 C.3     1  <0>         0.0500
      3 O3         -9.7012   -0.3174   56.0197 O.3     1  <0>        -0.3200
      4 C4         -8.8291    0.3823   55.2457 C.ar    1  <0>         0.1000
      5 C5         -8.6974    0.0764   53.8993 C.ar    1  <0>        -0.1700
      6 C6         -7.8115    0.7870   53.1130 C.ar    1  <0>        -0.1100
      7 C7         -7.0541    1.8069   53.6699 C.ar    1  <0>         0.0800
      8 O8         -6.1817    2.5062   52.8959 O.3     1  <0>        -0.3000
      9 C9         -6.7181    3.5831   52.1246 C.3     1  <0>         0.1000
     10 C10        -7.5887    3.0203   50.9993 C.3     1  <0>        -0.1800
     11 C11        -7.5673    4.4821   53.0254 C.3     1  <0>        -0.1500
     12 C12        -5.5897    4.3875   51.5323 C.2     1  <0>         0.5100
     13 O13        -5.5631    4.6083   50.3401 O.2     1  <0>        -0.5200
     14 N14        -4.6103    4.8615   52.3275 N.am    1  <0>        -0.6000
     15 C15        -4.6398    4.5959   53.7712 C.3     1  <0>         0.0700
     16 C16        -3.3309    3.9019   54.1807 C.3     1  <0>         0.1300
     17 N17        -2.2271    4.6393   53.5502 N.am    1  <0>        -0.6300
     18 C18        -1.1424    5.1591   54.1271 C.2     1  <0>         0.6500
     19 O19        -0.8340    4.9412   55.2820 O.2     1  <0>        -0.5200
     20 O20        -0.4254    5.9445   53.3120 O.3     1  <0>        -0.3200
     21 C21        -1.0123    5.9242   51.9770 C.3     1  <0>         0.0500
     22 C22        -2.1899    4.9442   52.1035 C.3     1  <0>         0.0800
     23 H23        -2.0294    4.0458   51.5074 H       1  <0>         0.1100
     24 C24        -3.5043    5.6417   51.7514 C.3     1  <0>         0.1000
     25 C25        -7.1869    2.1137   55.0159 C.ar    1  <0>        -0.1800
     26 C26        -8.0756    1.4055   55.8013 C.ar    1  <0>        -0.1100
     27 H27       -11.7765   -2.9530   55.9724 H       1  <0>         0.0800
     28 H28       -10.6711   -2.4578   57.2767 H       1  <0>         0.0700
     29 H29       -12.0132   -1.3924   56.7950 H       1  <0>         0.0700
     30 H30        -9.6216   -2.1413   55.0524 H       1  <0>         0.0600
     31 H31       -10.9638   -1.0759   54.5709 H       1  <0>         0.0600
     32 H32        -9.2872   -0.7177   53.4658 H       1  <0>         0.1400
     33 H33        -7.7084    0.5484   52.0648 H       1  <0>         0.1400
     34 H34        -8.4752    2.5510   51.4259 H       1  <0>         0.0800
     35 H35        -7.8904    3.8294   50.3341 H       1  <0>         0.0900
     36 H36        -7.0207    2.2796   50.4363 H       1  <0>         0.0800
     37 H37        -6.9707    4.8114   53.8761 H       1  <0>         0.0800
     38 H38        -7.9031    5.3507   52.4591 H       1  <0>         0.0900
     39 H39        -8.4330    3.9246   53.3828 H       1  <0>         0.0900
     40 H40        -4.7387    5.5365   54.3129 H       1  <0>         0.0800
     41 H41        -5.4846    3.9482   54.0055 H       1  <0>         0.1300
     42 H42        -3.2215    3.9271   55.2650 H       1  <0>         0.1100
     43 H43        -3.3338    2.8694   53.8316 H       1  <0>         0.0800
     44 H44        -1.3689    6.9165   51.7012 H       1  <0>         0.1100
     45 H45        -0.2890    5.5603   51.2471 H       1  <0>         0.1100
     46 H46        -3.6152    5.6930   50.6683 H       1  <0>         0.1100
     47 H47        -3.5111    6.6478   52.1709 H       1  <0>         0.0800
     48 H48        -6.5974    2.9080   55.4495 H       1  <0>         0.1600
     49 H49        -8.1789    1.6445   56.8495 H       1  <0>         0.1300
@<TRIPOS>BOND
     1     1     2    1
     2     1    27    1
     3     1    28    1
     4     1    29    1
     5     2     3    1
     6     2    30    1
     7     2    31    1
     8     3     4    1
     9     4    26   ar
    10     4     5   ar
    11     5     6   ar
    12     5    32    1
    13     6     7   ar
    14     6    33    1
    15     7     8    1
    16     7    25   ar
    17     8     9    1
    18     9    10    1
    19     9    11    1
    20     9    12    1
    21    10    34    1
    22    10    35    1
    23    10    36    1
    24    11    37    1
    25    11    38    1
    26    11    39    1
    27    12    13    2
    28    12    14   am
    29    14    24    1
    30    14    15    1
    31    15    16    1
    32    15    40    1
    33    15    41    1
    34    16    17    1
    35    16    42    1
    36    16    43    1
    37    17    22    1
    38    17    18   am
    39    18    19    2
    40    18    20    1
    41    20    21    1
    42    21    22    1
    43    21    44    1
    44    21    45    1
    45    22    23    1
    46    22    24    1
    47    24    46    1
    48    24    47    1
    49    25    26   ar
    50    25    48    1
    51    26    49    1
@<TRIPOS>SUBSTRUCTURE
     1 <0>         1 TEMP              0 ****  ****    0 ROOT


##########                                Name:    ZINC000550782577
##########                DOCK_Rotatable_Bonds:                   5
##########                         Heavy_Atoms:                  25
##########                    Molecular_Weight:              338.45
##########                DOCK_Rotatable_Bonds:                   5
##########                       Formal_Charge:         -0.00999954
##########                     HBond_Acceptors:                   4
##########                        HBond_Donors:                   0
##########                         Heavy_Atoms:                  25
##########                          Grid_Score:          -24.093876
##########                     Grid_vdw_energy:          -22.991558
##########                      Grid_es_energy:           -1.102317
##########           Internal_energy_repulsive:           18.854710

@<TRIPOS>MOLECULE
ZINC000550782577
 51 53 1 0 0
SMALL
USER_CHARGES


@<TRIPOS>ATOM
      1 C1        -10.5217    2.0424   57.7708 C.3     1  ZINC000550782577    0.0700
      2 N2         -9.8843    0.9092   58.4458 N.am    1  ZINC000550782577   -0.5900
      3 C3         -8.5589    0.9285   58.6891 C.2     1  ZINC000550782577    0.5800
      4 O4         -8.0300   -0.0117   59.2492 O.2     1  ZINC000550782577   -0.5400
      5 C5         -7.7477    2.0941   58.2747 C.ar    1  ZINC000550782577    0.0300
      6 C6         -7.3799    3.0500   59.2208 C.ar    1  ZINC000550782577   -0.0600
      7 C7         -6.6211    4.1358   58.8214 C.ar    1  ZINC000550782577   -0.1200
      8 C8         -6.2531    4.2310   57.4824 C.ar    1  ZINC000550782577    0.1100
      9 O9         -5.5088    5.2794   57.0479 O.3     1  ZINC000550782577   -0.3000
     10 C10        -4.1045    5.0607   56.8994 C.3     1  ZINC000550782577    0.1000
     11 C11        -3.7879    4.7565   55.4338 C.3     1  ZINC000550782577   -0.2000
     12 C12        -3.3441    6.3147   57.3357 C.3     1  ZINC000550782577   -0.1400
     13 C13        -3.6778    3.8769   57.7697 C.3     1  ZINC000550782577   -0.2000
     14 C14        -6.6573    3.2377   56.5937 C.ar    1  ZINC000550782577   -0.0100
     15 N15        -7.3729    2.2165   57.0064 N.ar    1  ZINC000550782577   -0.4100
     16 C16       -10.6877   -0.2452   58.8562 C.3     1  ZINC000550782577    0.1400
     17 H17       -10.0413   -1.1122   58.9924 H       1  ZINC000550782577    0.1100
     18 C18       -11.4117    0.0707   60.1701 C.3     1  ZINC000550782577   -0.1300
     19 C19       -12.0425   -1.2177   60.6946 C.3     1  ZINC000550782577   -0.0800
     20 C20       -12.8610   -1.8824   59.6189 C.ar    1  ZINC000550782577   -0.0800
     21 C21       -13.7934   -2.8339   60.0109 C.ar    1  ZINC000550782577   -0.1200
     22 C22       -14.5700   -3.4825   59.0730 C.ar    1  ZINC000550782577   -0.1200
     23 C23       -14.4188   -3.1840   57.7318 C.ar    1  ZINC000550782577   -0.1200
     24 C24       -13.4946   -2.2373   57.3405 C.ar    1  ZINC000550782577   -0.1200
     25 C25       -12.7145   -1.5807   58.2833 C.ar    1  ZINC000550782577   -0.0700
     26 C26       -11.7361   -0.5481   57.7876 C.3     1  ZINC000550782577   -0.0900
     27 H27       -10.4048    1.9356   56.6923 H       1  ZINC000550782577    0.0600
     28 H28       -11.5824    2.0645   58.0208 H       1  ZINC000550782577    0.0600
     29 H29       -10.0523    2.9705   58.0969 H       1  ZINC000550782577    0.1100
     30 H30        -7.6835    2.9443   60.2519 H       1  ZINC000550782577    0.1600
     31 H31        -6.3216    4.8921   59.5319 H       1  ZINC000550782577    0.1500
     32 H32        -3.6899    5.6911   54.8816 H       1  ZINC000550782577    0.0700
     33 H33        -2.8537    4.1983   55.3722 H       1  ZINC000550782577    0.0800
     34 H34        -4.5947    4.1631   55.0033 H       1  ZINC000550782577    0.0800
     35 H35        -3.5697    6.5315   58.3798 H       1  ZINC000550782577    0.0700
     36 H36        -2.2729    6.1478   57.2223 H       1  ZINC000550782577    0.0800
     37 H37        -3.6481    7.1581   56.7156 H       1  ZINC000550782577    0.0700
     38 H38        -4.2161    2.9826   57.4558 H       1  ZINC000550782577    0.0800
     39 H39        -2.6058    3.7131   57.6600 H       1  ZINC000550782577    0.0800
     40 H40        -3.9076    4.0918   58.8133 H       1  ZINC000550782577    0.0700
     41 H41        -6.3751    3.3057   55.5535 H       1  ZINC000550782577    0.1900
     42 H42       -10.6981    0.4534   60.8997 H       1  ZINC000550782577    0.0700
     43 H43       -12.1890    0.8137   59.9915 H       1  ZINC000550782577    0.0700
     44 H44       -11.2546   -1.8975   61.0187 H       1  ZINC000550782577    0.0800
     45 H45       -12.6858   -0.9835   61.5428 H       1  ZINC000550782577    0.0800
     46 H46       -13.9114   -3.0683   61.0585 H       1  ZINC000550782577    0.1200
     47 H47       -15.2933   -4.2211   59.3854 H       1  ZINC000550782577    0.1200
     48 H48       -15.0218   -3.6905   56.9926 H       1  ZINC000550782577    0.1200
     49 H49       -13.3769   -2.0049   56.2924 H       1  ZINC000550782577    0.1200
     50 H50       -12.2736    0.3678   57.5422 H       1  ZINC000550782577    0.0800
     51 H51       -11.2398   -0.9236   56.8927 H       1  ZINC000550782577    0.0800
@<TRIPOS>BOND
     1     1     2    1
     2     1    27    1
     3     1    28    1
     4     1    29    1
     5     2     3   am
     6     2    16    1
     7     3     4    2
     8     3     5    1
     9     5    15   ar
    10     5     6   ar
    11     6     7   ar
    12     6    30    1
    13     7     8   ar
    14     7    31    1
    15     8     9    1
    16     8    14   ar
    17     9    10    1
    18    10    11    1
    19    10    12    1
    20    10    13    1
    21    11    32    1
    22    11    33    1
    23    11    34    1
    24    12    35    1
    25    12    36    1
    26    12    37    1
    27    13    38    1
    28    13    39    1
    29    13    40    1
    30    14    15   ar
    31    14    41    1
    32    16    17    1
    33    16    26    1
    34    16    18    1
    35    18    19    1
    36    18    42    1
    37    18    43    1
    38    19    20    1
    39    19    44    1
    40    19    45    1
    41    20    25   ar
    42    20    21   ar
    43    21    22   ar
    44    21    46    1
    45    22    23   ar
    46    22    47    1
    47    23    24   ar
    48    23    48    1
    49    24    25   ar
    50    24    49    1
    51    25    26    1
    52    26    50    1
    53    26    51    1
@<TRIPOS>SUBSTRUCTURE
     1 ZINC000550782577        1 TEMP              0 ****  ****    0 ROOT


##########                                Name:    ZINC001076281847
##########                DOCK_Rotatable_Bonds:                   4
##########                         Heavy_Atoms:                  24
##########                    Molecular_Weight:             362.883
##########                DOCK_Rotatable_Bonds:                   4
##########                       Formal_Charge:         -0.00999959
##########                     HBond_Acceptors:                   7
##########                        HBond_Donors:                   0
##########                         Heavy_Atoms:                  24
##########                          Grid_Score:          -23.844656
##########                     Grid_vdw_energy:          -22.731007
##########                      Grid_es_energy:           -1.113649
##########           Internal_energy_repulsive:            7.671073

@<TRIPOS>MOLECULE
ZINC001076281847
 43 46 1 0 0
SMALL
USER_CHARGES


@<TRIPOS>ATOM
      1 C1         -8.8765   -0.2365   61.4395 C.3     1  ZINC001076281847   -0.0900
      2 C2         -9.5660    0.1688   60.1622 C.2     1  ZINC001076281847    0.1400
      3 N3        -10.8206   -0.1016   59.9505 N.2     1  ZINC001076281847   -0.4600
      4 S4        -11.2133    0.5134   58.4194 S.3     1  ZINC001076281847    0.2500
      5 C5         -9.6472    1.1393   58.0798 C.2     1  ZINC001076281847   -0.2100
      6 C6         -9.2050    1.8647   56.8349 C.3     1  ZINC001076281847    0.1200
      7 N7        -10.0750    1.4870   55.7131 N.3     1  ZINC001076281847   -0.5000
      8 C8         -9.5900    0.2615   55.0592 C.3     1  ZINC001076281847    0.0300
      9 C9         -9.7937    0.4548   53.5445 C.3     1  ZINC001076281847   -0.1000
     10 H10       -10.7165    0.0107   53.1714 H       1  ZINC001076281847    0.1200
     11 C11        -8.5236   -0.0559   52.8147 C.3     1  ZINC001076281847   -0.1300
     12 C12        -7.5064    1.0696   53.1258 C.3     1  ZINC001076281847    0.1000
     13 N13        -8.2955    2.3137   53.0809 N.am    1  ZINC001076281847   -0.6000
     14 C14        -7.8069    3.5438   52.8269 C.2     1  ZINC001076281847    0.5700
     15 O15        -8.5526    4.5032   52.8150 O.2     1  ZINC001076281847   -0.4900
     16 C16        -6.3614    3.7262   52.5625 C.ar    1  ZINC001076281847   -0.0800
     17 C17        -5.4056    3.3742   53.5203 C.ar    1  ZINC001076281847   -0.1800
     18 C18        -4.0676    3.5607   53.2318 C.ar    1  ZINC001076281847    0.1000
     19 N19        -3.6877    4.0624   52.0736 N.ar    1  ZINC001076281847   -0.4500
     20 C20        -4.5541    4.4077   51.1426 C.ar    1  ZINC001076281847    0.1100
     21 C21        -5.9134    4.2504   51.3445 C.ar    1  ZINC001076281847   -0.0500
     22 Cl22       -7.0466    4.7078   50.1114 Cl      1  ZINC001076281847   -0.0100
     23 C23        -9.7242    1.9949   53.3610 C.3     1  ZINC001076281847    0.1000
     24 H24       -10.3722    2.3402   52.5553 H       1  ZINC001076281847    0.1100
     25 C25       -10.1523    2.5679   54.7190 C.3     1  ZINC001076281847    0.0200
     26 C26        -8.8984    0.8481   59.1663 C.2     1  ZINC001076281847   -0.1800
     27 H27        -8.9085    0.5911   62.1480 H       1  ZINC001076281847    0.0700
     28 H28        -9.3836   -1.1012   61.8676 H       1  ZINC001076281847    0.0800
     29 H29        -7.8386   -0.4926   61.2267 H       1  ZINC001076281847    0.0900
     30 H30        -9.2698    2.9403   56.9989 H       1  ZINC001076281847    0.1000
     31 H31        -8.1750    1.5938   56.6031 H       1  ZINC001076281847    0.1000
     32 H32        -8.5320    0.1162   55.2774 H       1  ZINC001076281847    0.0600
     33 H33       -10.1639   -0.5980   55.4057 H       1  ZINC001076281847    0.0900
     34 H34        -8.1915   -1.0075   53.2295 H       1  ZINC001076281847    0.0900
     35 H35        -8.6972   -0.1391   51.7418 H       1  ZINC001076281847    0.0800
     36 H36        -7.0763    0.9286   54.1174 H       1  ZINC001076281847    0.0800
     37 H37        -6.7212    1.0907   52.3702 H       1  ZINC001076281847    0.0800
     38 H38        -5.7088    2.9628   54.4718 H       1  ZINC001076281847    0.1800
     39 H39        -3.3223    3.2920   53.9658 H       1  ZINC001076281847    0.1700
     40 H40        -4.1979    4.8151   50.2079 H       1  ZINC001076281847    0.1700
     41 H41       -11.1687    2.9557   54.6517 H       1  ZINC001076281847    0.1000
     42 H42        -9.4718    3.3670   55.0130 H       1  ZINC001076281847    0.0700
     43 H43        -7.8562    1.1205   59.2452 H       1  ZINC001076281847    0.1400
@<TRIPOS>BOND
     1     1     2    1
     2     1    27    1
     3     1    28    1
     4     1    29    1
     5     2    26    1
     6     2     3    2
     7     3     4    1
     8     4     5    1
     9     5     6    1
    10     5    26    2
    11     6     7    1
    12     6    30    1
    13     6    31    1
    14     7    25    1
    15     7     8    1
    16     8     9    1
    17     8    32    1
    18     8    33    1
    19     9    10    1
    20     9    23    1
    21     9    11    1
    22    11    12    1
    23    11    34    1
    24    11    35    1
    25    12    13    1
    26    12    36    1
    27    12    37    1
    28    13    14   am
    29    13    23    1
    30    14    15    2
    31    14    16    1
    32    16    21   ar
    33    16    17   ar
    34    17    18   ar
    35    17    38    1
    36    18    19   ar
    37    18    39    1
    38    19    20   ar
    39    20    21   ar
    40    20    40    1
    41    21    22    1
    42    23    24    1
    43    23    25    1
    44    25    41    1
    45    25    42    1
    46    26    43    1
@<TRIPOS>SUBSTRUCTURE
     1 ZINC001076281847        1 TEMP              0 ****  ****    0 ROOT


##########                                Name:    ZINC001135312623
##########                DOCK_Rotatable_Bonds:                   3
##########                         Heavy_Atoms:                  25
##########                    Molecular_Weight:             341.323
##########                DOCK_Rotatable_Bonds:                   3
##########                       Formal_Charge:        -1.78814e-07
##########                     HBond_Acceptors:                   8
##########                        HBond_Donors:                   2
##########                         Heavy_Atoms:                  25
##########                          Grid_Score:          -23.803917
##########                     Grid_vdw_energy:          -23.932989
##########                      Grid_es_energy:            0.129072
##########           Internal_energy_repulsive:            6.158382

@<TRIPOS>MOLECULE
ZINC001135312623
 40 42 1 0 0
SMALL
USER_CHARGES


@<TRIPOS>ATOM
      1 C1        -10.0765    0.5301   54.3439 C.3     1  ZINC001135312623   -0.1300
      2 C2         -9.6948    0.2904   55.7819 C.ar    1  ZINC001135312623   -0.0600
      3 C3        -10.3418   -0.6842   56.5155 C.ar    1  ZINC001135312623   -0.1000
      4 C4         -9.9925   -0.9045   57.8355 C.ar    1  ZINC001135312623   -0.0300
      5 C5        -10.7008   -1.9690   58.6331 C.3     1  ZINC001135312623   -0.1300
      6 C6         -8.9943   -0.1507   58.4246 C.ar    1  ZINC001135312623   -0.0200
      7 N7         -8.6236   -0.3898   59.8375 N.pl3   1  ZINC001135312623    0.0200
      8 O8         -8.2953    0.5439   60.5474 O.2     1  ZINC001135312623   -0.1500
      9 O9         -8.6468   -1.5203   60.2903 O.2     1  ZINC001135312623   -0.1500
     10 C10        -8.3425    0.8251   57.6960 C.ar    1  ZINC001135312623   -0.0700
     11 C11        -8.6876    1.0457   56.3691 C.ar    1  ZINC001135312623    0.1500
     12 N12        -8.0296    2.0328   55.6286 N.am    1  ZINC001135312623   -0.6600
     13 C13        -7.1635    1.6816   54.6574 C.2     1  ZINC001135312623    0.5600
     14 O14        -6.9542    0.5064   54.4252 O.2     1  ZINC001135312623   -0.5000
     15 C15        -6.4692    2.7230   53.8760 C.ar    1  ZINC001135312623   -0.1600
     16 C16        -6.4258    2.6396   52.4818 C.ar    1  ZINC001135312623   -0.0400
     17 C17        -5.7768    3.6119   51.7528 C.ar    1  ZINC001135312623   -0.1500
     18 C18        -5.1664    4.6754   52.4052 C.ar    1  ZINC001135312623    0.2000
     19 N19        -4.5012    5.6690   51.6865 N.am    1  ZINC001135312623   -0.6700
     20 C20        -3.6587    6.5047   52.3262 C.2     1  ZINC001135312623    0.6600
     21 O21        -3.0990    7.3852   51.7034 O.2     1  ZINC001135312623   -0.4900
     22 O22        -3.4304    6.3760   53.6456 O.3     1  ZINC001135312623   -0.3400
     23 C23        -4.5389    5.9301   54.4742 C.3     1  ZINC001135312623    0.1100
     24 C24        -5.2098    4.7618   53.7959 C.ar    1  ZINC001135312623   -0.1800
     25 C25        -5.8584    3.7987   54.5294 C.ar    1  ZINC001135312623    0.0000
     26 H26        -9.4728   -0.1062   53.6968 H       1  ZINC001135312623    0.0900
     27 H27       -11.1315    0.2942   54.2038 H       1  ZINC001135312623    0.0800
     28 H28        -9.9014    1.5758   54.0910 H       1  ZINC001135312623    0.0700
     29 H29       -11.1219   -1.2748   56.0583 H       1  ZINC001135312623    0.1500
     30 H30       -10.2226   -2.9327   58.4581 H       1  ZINC001135312623    0.0900
     31 H31       -10.6472   -1.7241   59.6939 H       1  ZINC001135312623    0.0800
     32 H32       -11.7449   -2.0200   58.3242 H       1  ZINC001135312623    0.0800
     33 H33        -7.5629    1.4137   58.1569 H       1  ZINC001135312623    0.1700
     34 H34        -8.1964    2.9702   55.8138 H       1  ZINC001135312623    0.4200
     35 H35        -6.9008    1.8123   51.9753 H       1  ZINC001135312623    0.1400
     36 H36        -5.7426    3.5473   50.6754 H       1  ZINC001135312623    0.1500
     37 H37        -4.6440    5.7579   50.7313 H       1  ZINC001135312623    0.4300
     38 H38        -4.1647    5.6208   55.4501 H       1  ZINC001135312623    0.1300
     39 H39        -5.2549    6.7431   54.5955 H       1  ZINC001135312623    0.1000
     40 H40        -5.8935    3.8695   55.6065 H       1  ZINC001135312623    0.1500
@<TRIPOS>BOND
     1     1     2    1
     2     1    26    1
     3     1    27    1
     4     1    28    1
     5     2    11   ar
     6     2     3   ar
     7     3     4   ar
     8     3    29    1
     9     4     5    1
    10     4     6   ar
    11     5    30    1
    12     5    31    1
    13     5    32    1
    14     6     7    1
    15     6    10   ar
    16     7     8    2
    17     7     9    2
    18    10    11   ar
    19    10    33    1
    20    11    12    1
    21    12    13   am
    22    12    34    1
    23    13    14    2
    24    13    15    1
    25    15    25   ar
    26    15    16   ar
    27    16    17   ar
    28    16    35    1
    29    17    18   ar
    30    17    36    1
    31    18    24   ar
    32    18    19    1
    33    19    20   am
    34    19    37    1
    35    20    21    2
    36    20    22    1
    37    22    23    1
    38    23    24    1
    39    23    38    1
    40    23    39    1
    41    24    25   ar
    42    25    40    1
@<TRIPOS>SUBSTRUCTURE
     1 ZINC001135312623        1 TEMP              0 ****  ****    0 ROOT


##########                                Name:    ZINC000179211660
##########                DOCK_Rotatable_Bonds:                   6
##########                         Heavy_Atoms:                  23
##########                    Molecular_Weight:             385.208
##########                DOCK_Rotatable_Bonds:                   6
##########                       Formal_Charge:        -1.78814e-07
##########                     HBond_Acceptors:                   6
##########                        HBond_Donors:                   1
##########                         Heavy_Atoms:                  23
##########                          Grid_Score:          -23.753374
##########                     Grid_vdw_energy:          -22.826025
##########                      Grid_es_energy:           -0.927349
##########           Internal_energy_repulsive:           16.494129

@<TRIPOS>MOLECULE
ZINC000179211660
 38 39 1 0 0
SMALL
USER_CHARGES


@<TRIPOS>ATOM
      1 C1        -10.7922    6.0316   63.5397 C.3     1  ZINC000179211660    0.0300
      2 O2        -10.1461    4.7832   63.7971 O.3     1  ZINC000179211660   -0.2700
      3 C3        -10.9436    3.7303   64.1172 C.ar    1  ZINC000179211660    0.1500
      4 C4        -12.3125    3.9105   64.2495 C.ar    1  ZINC000179211660   -0.2200
      5 C5        -13.1211    2.8383   64.5745 C.ar    1  ZINC000179211660   -0.0700
      6 C6        -12.5669    1.5868   64.7681 C.ar    1  ZINC000179211660   -0.1700
      7 C7        -11.2023    1.4046   64.6372 C.ar    1  ZINC000179211660   -0.0700
      8 C8        -10.3903    2.4719   64.3065 C.ar    1  ZINC000179211660   -0.1500
      9 C9         -8.9035    2.2725   64.1634 C.3     1  ZINC000179211660    0.1800
     10 N10        -8.6428    0.9718   63.5419 N.am    1  ZINC000179211660   -0.6200
     11 C11        -7.8605   -0.0387   64.2582 C.3     1  ZINC000179211660    0.0700
     12 C12        -9.1225    0.7048   62.3110 C.2     1  ZINC000179211660    0.7000
     13 O13        -9.7705    1.5441   61.7158 O.2     1  ZINC000179211660   -0.5300
     14 N14        -8.8841   -0.4924   61.7399 N.am    1  ZINC000179211660   -0.6800
     15 C15        -9.3828   -0.7700   60.4604 C.ar    1  ZINC000179211660    0.1900
     16 C16       -10.3864   -1.7138   60.2955 C.ar    1  ZINC000179211660   -0.1400
     17 C17       -10.8776   -1.9858   59.0308 C.ar    1  ZINC000179211660    0.1500
     18 F18       -11.8549   -2.9046   58.8695 F       1  ZINC000179211660   -0.1100
     19 C19       -10.3685   -1.3164   57.9301 C.ar    1  ZINC000179211660   -0.1300
     20 Br20      -11.0425   -1.6901   56.2032 Br      1  ZINC000179211660   -0.0100
     21 C21        -9.3679   -0.3745   58.0921 C.ar    1  ZINC000179211660   -0.0700
     22 C22        -8.8769   -0.0960   59.3542 C.ar    1  ZINC000179211660    0.0600
     23 F23        -7.9000    0.8238   59.5116 F       1  ZINC000179211660   -0.1300
     24 H24       -10.0430    6.7852   63.2970 H       1  ZINC000179211660    0.1000
     25 H25       -11.4792    5.9189   62.7010 H       1  ZINC000179211660    0.0500
     26 H26       -11.3471    6.3428   64.4247 H       1  ZINC000179211660    0.0500
     27 H27       -12.7459    4.8883   64.0990 H       1  ZINC000179211660    0.1300
     28 H28       -14.1870    2.9783   64.6777 H       1  ZINC000179211660    0.1200
     29 H29       -13.2005    0.7500   65.0225 H       1  ZINC000179211660    0.1200
     30 H30       -10.7716    0.4259   64.7894 H       1  ZINC000179211660    0.1300
     31 H31        -8.4894    3.0635   63.5382 H       1  ZINC000179211660    0.0900
     32 H32        -8.4361    2.3051   65.1476 H       1  ZINC000179211660    0.1000
     33 H33        -8.5289   -0.6614   64.8528 H       1  ZINC000179211660    0.0600
     34 H34        -7.3268   -0.6613   63.5401 H       1  ZINC000179211660    0.0600
     35 H35        -7.1438    0.4547   64.9147 H       1  ZINC000179211660    0.0800
     36 H36        -8.3672   -1.1619   62.2147 H       1  ZINC000179211660    0.4100
     37 H37       -10.7837   -2.2358   61.1534 H       1  ZINC000179211660    0.1800
     38 H38        -8.9727    0.1460   57.2324 H       1  ZINC000179211660    0.1600
@<TRIPOS>BOND
     1     1     2    1
     2     1    24    1
     3     1    25    1
     4     1    26    1
     5     2     3    1
     6     3     8   ar
     7     3     4   ar
     8     4     5   ar
     9     4    27    1
    10     5     6   ar
    11     5    28    1
    12     6     7   ar
    13     6    29    1
    14     7     8   ar
    15     7    30    1
    16     8     9    1
    17     9    10    1
    18     9    31    1
    19     9    32    1
    20    10    11    1
    21    10    12   am
    22    11    33    1
    23    11    34    1
    24    11    35    1
    25    12    13    2
    26    12    14   am
    27    14    15    1
    28    14    36    1
    29    15    22   ar
    30    15    16   ar
    31    16    17   ar
    32    16    37    1
    33    17    18    1
    34    17    19   ar
    35    19    20    1
    36    19    21   ar
    37    21    22   ar
    38    21    38    1
    39    22    23    1
@<TRIPOS>SUBSTRUCTURE
     1 ZINC000179211660        1 TEMP              0 ****  ****    0 ROOT


##########                                Name:    ZINC000928803822
##########                DOCK_Rotatable_Bonds:                   7
##########                         Heavy_Atoms:                  21
##########                    Molecular_Weight:             364.165
##########                DOCK_Rotatable_Bonds:                   7
##########                       Formal_Charge:         -0.00999978
##########                     HBond_Acceptors:                   7
##########                        HBond_Donors:                   1
##########                         Heavy_Atoms:                  21
##########                          Grid_Score:          -23.649956
##########                     Grid_vdw_energy:          -22.553442
##########                      Grid_es_energy:           -1.096513
##########           Internal_energy_repulsive:           10.100213

@<TRIPOS>MOLECULE
ZINC000928803822
 34 34 1 0 0
SMALL
USER_CHARGES


@<TRIPOS>ATOM
      1 C1         -9.6201    1.9339   63.2325 C.3     1  ZINC000928803822    0.0900
      2 N2         -8.9388    0.7473   62.7090 N.pl3   1  ZINC000928803822   -0.6300
      3 C3         -8.0067    0.0029   63.5595 C.3     1  ZINC000928803822    0.0900
      4 C4         -9.1780    0.3256   61.3987 C.ar    1  ZINC000928803822    0.2200
      5 C5        -10.0343   -0.7422   61.1580 C.ar    1  ZINC000928803822   -0.1500
      6 C6        -10.2743   -1.1634   59.8624 C.ar    1  ZINC000928803822   -0.0500
      7 Br7       -11.4415   -2.6169   59.5449 Br      1  ZINC000928803822   -0.0400
      8 C8         -9.6646   -0.5256   58.8003 C.ar    1  ZINC000928803822   -0.1200
      9 C9         -8.8030    0.5479   59.0323 C.ar    1  ZINC000928803822   -0.0800
     10 C10        -8.1488    1.2327   57.8968 C.2     1  ZINC000928803822    0.5700
     11 O11        -8.2738    0.7954   56.7695 O.2     1  ZINC000928803822   -0.5100
     12 N12        -7.4137    2.3418   58.1115 N.am    1  ZINC000928803822   -0.7200
     13 C13        -6.7641    3.0193   56.9868 C.3     1  ZINC000928803822    0.1100
     14 H14        -6.6250    2.3128   56.1684 H       1  ZINC000928803822    0.1400
     15 C15        -5.4032    3.5575   57.4328 C.3     1  ZINC000928803822   -0.0300
     16 C16        -5.5649    4.3341   58.6727 C.1     1  ZINC000928803822    0.2000
     17 N17        -5.6898    4.9335   59.6296 N.1     1  ZINC000928803822   -0.4000
     18 C18        -7.6419    4.1801   56.5147 C.3     1  ZINC000928803822    0.4400
     19 F19        -8.7384    3.6774   55.8062 F       1  ZINC000928803822   -0.1800
     20 F20        -8.0948    4.9032   57.6234 F       1  ZINC000928803822   -0.1700
     21 F21        -6.8950    5.0212   55.6829 F       1  ZINC000928803822   -0.1600
     22 C22        -8.5655    0.9761   60.3381 C.ar    1  ZINC000928803822   -0.1200
     23 H23        -9.0157    2.8183   63.0311 H       1  ZINC000928803822    0.0600
     24 H24       -10.5907    2.0391   62.7477 H       1  ZINC000928803822    0.0700
     25 H25        -9.7609    1.8271   64.3081 H       1  ZINC000928803822    0.0700
     26 H26        -8.5490   -0.7718   64.1015 H       1  ZINC000928803822    0.0500
     27 H27        -7.2378   -0.4579   62.9393 H       1  ZINC000928803822    0.0700
     28 H28        -7.5398    0.6846   64.2703 H       1  ZINC000928803822    0.0700
     29 H29       -10.5135   -1.2450   61.9849 H       1  ZINC000928803822    0.1400
     30 H30        -9.8542   -0.8575   57.7902 H       1  ZINC000928803822    0.1300
     31 H31        -7.3149    2.6914   59.0110 H       1  ZINC000928803822    0.4100
     32 H32        -4.7238    2.7241   57.6121 H       1  ZINC000928803822    0.1400
     33 H33        -4.9929    4.1992   56.6530 H       1  ZINC000928803822    0.1300
     34 H34        -7.8998    1.8060   60.5234 H       1  ZINC000928803822    0.1500
@<TRIPOS>BOND
     1     1     2    1
     2     1    23    1
     3     1    24    1
     4     1    25    1
     5     2     3    1
     6     2     4    1
     7     3    26    1
     8     3    27    1
     9     3    28    1
    10     4    22   ar
    11     4     5   ar
    12     5     6   ar
    13     5    29    1
    14     6     7    1
    15     6     8   ar
    16     8     9   ar
    17     8    30    1
    18     9    10    1
    19     9    22   ar
    20    10    11    2
    21    10    12   am
    22    12    13    1
    23    12    31    1
    24    13    14    1
    25    13    15    1
    26    13    18    1
    27    15    16    1
    28    15    32    1
    29    15    33    1
    30    16    17    3
    31    18    19    1
    32    18    20    1
    33    18    21    1
    34    22    34    1
@<TRIPOS>SUBSTRUCTURE
     1 ZINC000928803822        1 TEMP              0 ****  ****    0 ROOT


##########                                Name:    ZINC000080099940
##########                DOCK_Rotatable_Bonds:                   4
##########                         Heavy_Atoms:                  26
##########                    Molecular_Weight:             343.388
##########                DOCK_Rotatable_Bonds:                   4
##########                       Formal_Charge:        -3.42727e-07
##########                     HBond_Acceptors:                   6
##########                        HBond_Donors:                   1
##########                         Heavy_Atoms:                  26
##########                          Grid_Score:          -23.634995
##########                     Grid_vdw_energy:          -22.199688
##########                      Grid_es_energy:           -1.435307
##########           Internal_energy_repulsive:            3.964912

@<TRIPOS>MOLECULE
ZINC000080099940
 43 46 1 0 0
SMALL
USER_CHARGES


@<TRIPOS>ATOM
      1 C1         -9.2025    1.4018   63.4714 C.3     1  ZINC000080099940   -0.1100
      2 C2         -9.3647    0.7374   62.1285 C.2     1  ZINC000080099940   -0.0700
      3 C3        -10.2066    1.2676   61.2012 C.2     1  ZINC000080099940   -0.0900
      4 C4        -10.3455    0.6321   59.9502 C.2     1  ZINC000080099940    0.2300
      5 N5        -11.0770    0.9203   58.8839 N.2     1  ZINC000080099940   -0.4800
      6 C6        -10.8555   -0.0043   57.9360 C.2     1  ZINC000080099940    0.1000
      7 C7        -11.4832   -0.0385   56.5920 C.ar    1  ZINC000080099940   -0.0200
      8 C8        -10.7521   -0.4825   55.4914 C.ar    1  ZINC000080099940   -0.0800
      9 C9        -11.3375   -0.5139   54.2434 C.ar    1  ZINC000080099940   -0.1200
     10 C10       -12.6554   -0.1027   54.0824 C.ar    1  ZINC000080099940    0.1500
     11 N11       -13.2466   -0.1348   52.8164 N.am    1  ZINC000080099940   -0.6500
     12 C12       -12.7718    0.6523   51.8308 C.2     1  ZINC000080099940    0.5700
     13 O13       -11.8300    1.3900   52.0428 O.2     1  ZINC000080099940   -0.5000
     14 C14       -13.3995    0.6181   50.4865 C.ar    1  ZINC000080099940    0.1300
     15 C15       -14.4477   -0.2620   50.2153 C.ar    1  ZINC000080099940   -0.1700
     16 C16       -15.0000   -0.2537   48.9421 C.ar    1  ZINC000080099940    0.1600
     17 N17       -14.5187    0.5806   48.0369 N.ar    1  ZINC000080099940   -0.5000
     18 C18       -13.5265    1.4001   48.3266 C.ar    1  ZINC000080099940    0.3200
     19 C19       -13.0128    2.3327   47.2600 C.3     1  ZINC000080099940   -0.0900
     20 N20       -12.9757    1.4306   49.5209 N.ar    1  ZINC000080099940   -0.5000
     21 C21       -13.3863    0.3402   55.1786 C.ar    1  ZINC000080099940   -0.1400
     22 C22       -12.8065    0.3681   56.4291 C.ar    1  ZINC000080099940   -0.0700
     23 C23        -9.9551   -0.9053   58.4193 C.2     1  ZINC000080099940   -0.0900
     24 N24        -9.6313   -0.5087   59.6869 N.pl3   1  ZINC000080099940   -0.3600
     25 C25        -8.7897   -1.0297   60.6272 C.2     1  ZINC000080099940    0.0600
     26 C26        -8.6425   -0.4290   61.8266 C.2     1  ZINC000080099940   -0.1400
     27 H27        -8.4882    0.8382   64.0717 H       1  ZINC000080099940    0.0700
     28 H28        -8.8370    2.4191   63.3318 H       1  ZINC000080099940    0.0800
     29 H29       -10.1651    1.4285   63.9822 H       1  ZINC000080099940    0.0800
     30 H30       -10.7638    2.1664   61.4211 H       1  ZINC000080099940    0.1500
     31 H31        -9.7279   -0.8015   55.6160 H       1  ZINC000080099940    0.1300
     32 H32       -10.7715   -0.8580   53.3905 H       1  ZINC000080099940    0.1400
     33 H33       -13.9984   -0.7238   52.6470 H       1  ZINC000080099940    0.4200
     34 H34       -14.8191   -0.9324   50.9762 H       1  ZINC000080099940    0.1600
     35 H35       -15.8126   -0.9206   48.6941 H       1  ZINC000080099940    0.1800
     36 H36       -13.5654    3.2713   47.3010 H       1  ZINC000080099940    0.0900
     37 H37       -11.9533    2.5272   47.4271 H       1  ZINC000080099940    0.0900
     38 H38       -13.1479    1.8739   46.2805 H       1  ZINC000080099940    0.0900
     39 H39       -14.4102    0.6592   55.0512 H       1  ZINC000080099940    0.1300
     40 H40       -13.3750    0.7119   57.2807 H       1  ZINC000080099940    0.1400
     41 H41        -9.5701   -1.7700   57.8993 H       1  ZINC000080099940    0.1900
     42 H42        -8.2329   -1.9286   60.4072 H       1  ZINC000080099940    0.1700
     43 H43        -7.9729   -0.8519   62.5610 H       1  ZINC000080099940    0.1500
@<TRIPOS>BOND
     1     1     2    1
     2     1    27    1
     3     1    28    1
     4     1    29    1
     5     2    26    1
     6     2     3    2
     7     3     4    1
     8     3    30    1
     9     4    24    1
    10     4     5    2
    11     5     6    1
    12     6     7    1
    13     6    23    2
    14     7    22   ar
    15     7     8   ar
    16     8     9   ar
    17     8    31    1
    18     9    10   ar
    19     9    32    1
    20    10    11    1
    21    10    21   ar
    22    11    12   am
    23    11    33    1
    24    12    13    2
    25    12    14    1
    26    14    20   ar
    27    14    15   ar
    28    15    16   ar
    29    15    34    1
    30    16    17   ar
    31    16    35    1
    32    17    18   ar
    33    18    19    1
    34    18    20   ar
    35    19    36    1
    36    19    37    1
    37    19    38    1
    38    21    22   ar
    39    21    39    1
    40    22    40    1
    41    23    24    1
    42    23    41    1
    43    24    25    1
    44    25    26    2
    45    25    42    1
    46    26    43    1
@<TRIPOS>SUBSTRUCTURE
     1 ZINC000080099940        1 TEMP              0 ****  ****    0 ROOT


##########                                Name:    ZINC000648570180
##########                DOCK_Rotatable_Bonds:                   4
##########                         Heavy_Atoms:                  25
##########                    Molecular_Weight:             342.484
##########                DOCK_Rotatable_Bonds:                   4
##########                       Formal_Charge:          0.00999971
##########                     HBond_Acceptors:                   5
##########                        HBond_Donors:                   0
##########                         Heavy_Atoms:                  25
##########                          Grid_Score:          -23.566338
##########                     Grid_vdw_energy:          -23.560337
##########                      Grid_es_energy:           -0.006001
##########           Internal_energy_repulsive:           81.213760

@<TRIPOS>MOLECULE
ZINC000648570180
 55 58 1 0 0
SMALL
USER_CHARGES


@<TRIPOS>ATOM
      1 C1          0.3276    6.1040   54.0294 C.3     1  ZINC000648570180   -0.1500
      2 C2          0.4799    4.7819   54.7844 C.3     1  ZINC000648570180   -0.0600
      3 C3          1.7324    4.0460   54.3041 C.3     1  ZINC000648570180   -0.1400
      4 C4          0.5705    5.0470   56.3014 C.3     1  ZINC000648570180   -0.1200
      5 C5         -0.2070    3.8693   56.9397 C.3     1  ZINC000648570180   -0.1300
      6 C6         -1.3863    3.6653   55.9565 C.3     1  ZINC000648570180   -0.1200
      7 C7         -0.7642    3.9035   54.5651 C.3     1  ZINC000648570180   -0.0700
      8 H8         -0.4755    2.9524   54.1173 H       1  ZINC000648570180    0.0800
      9 C9         -1.7644    4.6259   53.6604 C.3     1  ZINC000648570180   -0.1000
     10 H10        -1.8288    5.6830   53.9186 H       1  ZINC000648570180    0.1000
     11 C11        -1.3966    4.4402   52.1646 C.3     1  ZINC000648570180   -0.1400
     12 C12        -2.7576    4.5896   51.4528 C.3     1  ZINC000648570180    0.1200
     13 N13        -3.8032    4.2984   52.4445 N.am    1  ZINC000648570180   -0.6000
     14 C14        -5.1316    4.3399   52.2207 C.2     1  ZINC000648570180    0.5800
     15 O15        -5.5533    4.6372   51.1210 O.2     1  ZINC000648570180   -0.5200
     16 C16        -6.0796    4.0222   53.3183 C.ar    1  ZINC000648570180    0.1600
     17 C17        -6.1543    4.8374   54.4474 C.ar    1  ZINC000648570180   -0.2000
     18 C18        -7.0563    4.5003   55.4473 C.ar    1  ZINC000648570180    0.1800
     19 N19        -7.8108    3.4259   55.3004 N.ar    1  ZINC000648570180   -0.5400
     20 C20        -7.7173    2.6699   54.2152 C.ar    1  ZINC000648570180    0.4800
     21 N21        -8.5262    1.5524   54.1004 N.3     1  ZINC000648570180   -0.4400
     22 C22        -9.2106    1.5238   52.7824 C.3     1  ZINC000648570180    0.0500
     23 C23        -9.6090    0.0350   52.6222 C.3     1  ZINC000648570180   -0.1200
     24 C24        -8.4038   -0.7134   53.2365 C.3     1  ZINC000648570180   -0.1300
     25 C25        -7.7264    0.3101   54.1665 C.3     1  ZINC000648570180    0.0400
     26 N26        -6.8749    2.9583   53.2371 N.ar    1  ZINC000648570180   -0.5000
     27 C27        -3.1582    3.9529   53.7249 C.3     1  ZINC000648570180    0.1100
     28 H28        -0.6216    6.5680   54.2971 H       1  ZINC000648570180    0.0600
     29 H29         1.1466    6.7717   54.2971 H       1  ZINC000648570180    0.0500
     30 H30         0.3494    5.9143   52.9563 H       1  ZINC000648570180    0.0700
     31 H31         2.6090    4.6711   54.4748 H       1  ZINC000648570180    0.0500
     32 H32         1.8391    3.1122   54.8560 H       1  ZINC000648570180    0.0500
     33 H33         1.6416    3.8306   53.2395 H       1  ZINC000648570180    0.0500
     34 H34         1.6102    5.0397   56.6284 H       1  ZINC000648570180    0.0600
     35 H35         0.0975    5.9967   56.5515 H       1  ZINC000648570180    0.0700
     36 H36         0.4156    2.9758   56.9870 H       1  ZINC000648570180    0.0700
     37 H37        -0.5724    4.1397   57.9305 H       1  ZINC000648570180    0.0700
     38 H38        -1.7745    2.6496   56.0320 H       1  ZINC000648570180    0.0700
     39 H39        -2.1752    4.3917   56.1511 H       1  ZINC000648570180    0.0700
     40 H40        -0.7036    5.2158   51.8386 H       1  ZINC000648570180    0.0900
     41 H41        -0.9773    3.4491   51.9909 H       1  ZINC000648570180    0.0800
     42 H42        -2.8720    5.6081   51.0817 H       1  ZINC000648570180    0.0800
     43 H43        -2.8234    3.8821   50.6263 H       1  ZINC000648570180    0.0700
     44 H44        -5.5251    5.7101   54.5417 H       1  ZINC000648570180    0.1600
     45 H45        -7.1400    5.1092   56.3353 H       1  ZINC000648570180    0.1800
     46 H46       -10.0957    2.1598   52.7946 H       1  ZINC000648570180    0.1000
     47 H47        -8.5285    1.8272   51.9882 H       1  ZINC000648570180    0.0500
     48 H48       -10.5215   -0.1819   53.1773 H       1  ZINC000648570180    0.0800
     49 H49        -9.7264   -0.2216   51.5694 H       1  ZINC000648570180    0.0800
     50 H50        -8.7458   -1.5759   53.8085 H       1  ZINC000648570180    0.0800
     51 H51        -7.7141   -1.0273   52.4531 H       1  ZINC000648570180    0.0700
     52 H52        -6.7093    0.5047   53.8263 H       1  ZINC000648570180    0.0900
     53 H53        -7.7127   -0.0687   55.1885 H       1  ZINC000648570180    0.0900
     54 H54        -3.0527    2.8719   53.8170 H       1  ZINC000648570180    0.0700
     55 H55        -3.7347    4.3511   54.5598 H       1  ZINC000648570180    0.0800
@<TRIPOS>BOND
     1     1     2    1
     2     1    28    1
     3     1    29    1
     4     1    30    1
     5     2     7    1
     6     2     3    1
     7     2     4    1
     8     3    31    1
     9     3    32    1
    10     3    33    1
    11     4     5    1
    12     4    34    1
    13     4    35    1
    14     5     6    1
    15     5    36    1
    16     5    37    1
    17     6     7    1
    18     6    38    1
    19     6    39    1
    20     7     8    1
    21     7     9    1
    22     9    10    1
    23     9    27    1
    24     9    11    1
    25    11    12    1
    26    11    40    1
    27    11    41    1
    28    12    13    1
    29    12    42    1
    30    12    43    1
    31    13    14   am
    32    13    27    1
    33    14    15    2
    34    14    16    1
    35    16    26   ar
    36    16    17   ar
    37    17    18   ar
    38    17    44    1
    39    18    19   ar
    40    18    45    1
    41    19    20   ar
    42    20    21    1
    43    20    26   ar
    44    21    25    1
    45    21    22    1
    46    22    23    1
    47    22    46    1
    48    22    47    1
    49    23    24    1
    50    23    48    1
    51    23    49    1
    52    24    25    1
    53    24    50    1
    54    24    51    1
    55    25    52    1
    56    25    53    1
    57    27    54    1
    58    27    55    1
@<TRIPOS>SUBSTRUCTURE
     1 ZINC000648570180        1 TEMP              0 ****  ****    0 ROOT


##########                                Name:    ZINC000794876634
##########                DOCK_Rotatable_Bonds:                   4
##########                         Heavy_Atoms:                  24
##########                    Molecular_Weight:             389.249
##########                DOCK_Rotatable_Bonds:                   4
##########                       Formal_Charge:        -4.47035e-08
##########                     HBond_Acceptors:                   5
##########                        HBond_Donors:                   0
##########                         Heavy_Atoms:                  24
##########                          Grid_Score:          -23.479509
##########                     Grid_vdw_energy:          -23.926949
##########                      Grid_es_energy:            0.447440
##########           Internal_energy_repulsive:           52.711235

@<TRIPOS>MOLECULE
ZINC000794876634
 41 43 1 0 0
SMALL
USER_CHARGES


@<TRIPOS>ATOM
      1 C1        -13.4237   -2.7980   60.5331 C.3     1  ZINC000794876634    0.0200
      2 O2        -13.5197   -2.4390   59.1533 O.3     1  ZINC000794876634   -0.3000
      3 C3        -12.5732   -1.5943   58.6687 C.ar    1  ZINC000794876634    0.1300
      4 C4        -11.3223   -1.5389   59.2695 C.ar    1  ZINC000794876634   -0.1800
      5 C5        -10.3580   -0.6842   58.7835 C.ar    1  ZINC000794876634   -0.0400
      6 C6         -9.0019   -0.6271   59.4384 C.3     1  ZINC000794876634   -0.1200
      7 C7        -10.6383    0.1320   57.6796 C.ar    1  ZINC000794876634   -0.1000
      8 C8         -9.6143    1.0425   57.1594 C.2     1  ZINC000794876634    0.0600
      9 C9         -9.0310    0.7943   55.9507 C.2     1  ZINC000794876634   -0.1700
     10 C10        -9.3011   -0.3291   55.0370 C.2     1  ZINC000794876634    0.5700
     11 O11       -10.1025   -1.2265   55.2231 O.2     1  ZINC000794876634   -0.4900
     12 N12        -8.5077   -0.1885   53.9620 N.am    1  ZINC000794876634   -0.5300
     13 C13        -8.4871   -1.1143   52.8266 C.3     1  ZINC000794876634    0.0800
     14 C14        -7.7114    0.9419   54.0603 C.ar    1  ZINC000794876634    0.3700
     15 N15        -6.8008    1.4495   53.2387 N.ar    1  ZINC000794876634   -0.4900
     16 C16        -6.1435    2.5550   53.5250 C.ar    1  ZINC000794876634    0.1800
     17 C17        -6.3692    3.2470   54.7016 C.ar    1  ZINC000794876634   -0.1800
     18 Br18       -5.4086    4.8310   55.0811 Br      1  ZINC000794876634   -0.0200
     19 C19        -7.3101    2.7634   55.5993 C.ar    1  ZINC000794876634    0.0000
     20 C20        -7.9933    1.5980   55.2680 C.ar    1  ZINC000794876634   -0.1400
     21 C21       -11.9016    0.0743   57.0741 C.ar    1  ZINC000794876634   -0.1400
     22 C22       -12.8590   -0.7892   57.5655 C.ar    1  ZINC000794876634    0.0900
     23 O23       -14.0853   -0.8482   56.9805 O.3     1  ZINC000794876634   -0.3000
     24 C24       -15.1097   -1.5477   57.6900 C.3     1  ZINC000794876634    0.0200
     25 H25       -14.2383   -3.4752   60.7899 H       1  ZINC000794876634    0.1000
     26 H26       -12.4693   -3.2924   60.7143 H       1  ZINC000794876634    0.0600
     27 H27       -13.4902   -1.9001   61.1476 H       1  ZINC000794876634    0.0600
     28 H28       -11.1053   -2.1675   60.1205 H       1  ZINC000794876634    0.1400
     29 H29        -8.3390   -1.3513   58.9649 H       1  ZINC000794876634    0.0800
     30 H30        -8.5860    0.3741   59.3258 H       1  ZINC000794876634    0.0700
     31 H31        -9.0999   -0.8628   60.4981 H       1  ZINC000794876634    0.0700
     32 H32        -9.3213    1.9096   57.7326 H       1  ZINC000794876634    0.1500
     33 H33        -9.2058   -1.9156   52.9982 H       1  ZINC000794876634    0.0900
     34 H34        -8.7518   -0.5777   51.9155 H       1  ZINC000794876634    0.0800
     35 H35        -7.4884   -1.5382   52.7216 H       1  ZINC000794876634    0.0800
     36 H36        -5.4112    2.9296   52.8250 H       1  ZINC000794876634    0.1800
     37 H37        -7.5095    3.2796   56.5267 H       1  ZINC000794876634    0.1600
     38 H38       -12.1232    0.7011   56.2230 H       1  ZINC000794876634    0.1400
     39 H39       -14.8441   -2.6021   57.7655 H       1  ZINC000794876634    0.0500
     40 H40       -15.2117   -1.1261   58.6900 H       1  ZINC000794876634    0.0600
     41 H41       -16.0545   -1.4482   57.1557 H       1  ZINC000794876634    0.1100
@<TRIPOS>BOND
     1     1     2    1
     2     1    25    1
     3     1    26    1
     4     1    27    1
     5     2     3    1
     6     3    22   ar
     7     3     4   ar
     8     4     5   ar
     9     4    28    1
    10     5     6    1
    11     5     7   ar
    12     6    29    1
    13     6    30    1
    14     6    31    1
    15     7     8    1
    16     7    21   ar
    17     8     9    2
    18     8    32    1
    19     9    20    1
    20     9    10    1
    21    10    11    2
    22    10    12   am
    23    12    13    1
    24    12    14    1
    25    13    33    1
    26    13    34    1
    27    13    35    1
    28    14    20   ar
    29    14    15   ar
    30    15    16   ar
    31    16    17   ar
    32    16    36    1
    33    17    18    1
    34    17    19   ar
    35    19    20   ar
    36    19    37    1
    37    21    22   ar
    38    21    38    1
    39    22    23    1
    40    23    24    1
    41    24    39    1
    42    24    40    1
    43    24    41    1
@<TRIPOS>SUBSTRUCTURE
     1 ZINC000794876634        1 TEMP              0 ****  ****    0 ROOT


##########                                Name:    ZINC000879023512
##########                DOCK_Rotatable_Bonds:                   4
##########                         Heavy_Atoms:                  20
##########                    Molecular_Weight:             346.156
##########                DOCK_Rotatable_Bonds:                   4
##########                       Formal_Charge:        -5.96046e-08
##########                     HBond_Acceptors:                   7
##########                        HBond_Donors:                   1
##########                         Heavy_Atoms:                  20
##########                          Grid_Score:          -23.441099
##########                     Grid_vdw_energy:          -21.595530
##########                      Grid_es_energy:           -1.845569
##########           Internal_energy_repulsive:            2.161032

@<TRIPOS>MOLECULE
ZINC000879023512
 33 34 1 0 0
SMALL
USER_CHARGES


@<TRIPOS>ATOM
      1 O1         -7.3422    4.1224   53.3453 O.2     1  ZINC000879023512   -0.5600
      2 C2         -6.2209    3.6561   53.4064 C.2     1  ZINC000879023512    0.7200
      3 N3         -6.0351    2.4079   53.8799 N.am    1  ZINC000879023512   -0.6800
      4 C4         -7.1323    1.6507   54.3065 C.ar    1  ZINC000879023512    0.1800
      5 C5         -7.5655    1.7345   55.6230 C.ar    1  ZINC000879023512   -0.0900
      6 C6         -8.6485    0.9862   56.0415 C.ar    1  ZINC000879023512   -0.0700
      7 C7         -9.3012    0.1534   55.1503 C.ar    1  ZINC000879023512   -0.0700
      8 Br8       -10.7834   -0.8695   55.7267 Br      1  ZINC000879023512    0.0200
      9 C9         -8.8716    0.0680   53.8376 C.ar    1  ZINC000879023512    0.0000
     10 N10        -9.5724   -0.8241   52.8869 N.pl3   1  ZINC000879023512    0.0200
     11 O11        -9.1947   -0.8998   51.7314 O.2     1  ZINC000879023512   -0.1500
     12 O12       -10.5267   -1.4827   53.2600 O.2     1  ZINC000879023512   -0.1300
     13 C13        -7.7933    0.8185   53.4124 C.ar    1  ZINC000879023512   -0.0500
     14 N14        -5.1645    4.3852   52.9956 N.am    1  ZINC000879023512   -0.6300
     15 C15        -5.2230    5.7555   52.4661 C.3     1  ZINC000879023512    0.0900
     16 C16        -3.7809    6.1692   52.1048 C.3     1  ZINC000879023512   -0.1200
     17 C17        -3.0637    4.8055   51.9222 C.3     1  ZINC000879023512   -0.1400
     18 H18        -3.2409    4.4012   50.9256 H       1  ZINC000879023512    0.1000
     19 C19        -1.5646    4.9327   52.2006 C.3     1  ZINC000879023512    0.0700
     20 F20        -0.9439    3.6975   51.9856 F       1  ZINC000879023512   -0.2100
     21 C21        -3.7581    3.9434   53.0089 C.3     1  ZINC000879023512    0.1300
     22 H22        -5.1411    2.0344   53.9249 H       1  ZINC000879023512    0.4200
     23 H23        -7.0558    2.3840   56.3194 H       1  ZINC000879023512    0.1600
     24 H24        -8.9858    1.0511   57.0654 H       1  ZINC000879023512    0.1600
     25 H25        -7.4587    0.7517   52.3878 H       1  ZINC000879023512    0.1800
     26 H26        -5.8506    5.7822   51.5752 H       1  ZINC000879023512    0.0700
     27 H27        -5.6231    6.4291   53.2240 H       1  ZINC000879023512    0.0700
     28 H28        -3.7647    6.7407   51.1767 H       1  ZINC000879023512    0.0900
     29 H29        -3.3277    6.7375   52.9169 H       1  ZINC000879023512    0.0900
     30 H30        -1.1329    5.6774   51.5319 H       1  ZINC000879023512    0.0800
     31 H31        -1.4120    5.2410   53.2348 H       1  ZINC000879023512    0.0800
     32 H32        -3.3067    4.1262   53.9840 H       1  ZINC000879023512    0.0800
     33 H33        -3.6939    2.8858   52.7524 H       1  ZINC000879023512    0.0900
@<TRIPOS>BOND
     1     1     2    2
     2     2     3   am
     3     2    14   am
     4     3     4    1
     5     3    22    1
     6     4    13   ar
     7     4     5   ar
     8     5     6   ar
     9     5    23    1
    10     6     7   ar
    11     6    24    1
    12     7     8    1
    13     7     9   ar
    14     9    10    1
    15     9    13   ar
    16    10    11    2
    17    10    12    2
    18    13    25    1
    19    14    21    1
    20    14    15    1
    21    15    16    1
    22    15    26    1
    23    15    27    1
    24    16    17    1
    25    16    28    1
    26    16    29    1
    27    17    18    1
    28    17    19    1
    29    17    21    1
    30    19    20    1
    31    19    30    1
    32    19    31    1
    33    21    32    1
    34    21    33    1
@<TRIPOS>SUBSTRUCTURE
     1 ZINC000879023512        1 TEMP              0 ****  ****    0 ROOT


##########                                Name:    ZINC000482139334
##########                DOCK_Rotatable_Bonds:                   4
##########                         Heavy_Atoms:                  26
##########                    Molecular_Weight:             348.376
##########                DOCK_Rotatable_Bonds:                   4
##########                       Formal_Charge:           0.0300002
##########                     HBond_Acceptors:                   5
##########                        HBond_Donors:                   1
##########                         Heavy_Atoms:                  26
##########                          Grid_Score:          -23.404726
##########                     Grid_vdw_energy:          -22.485769
##########                      Grid_es_energy:           -0.918957
##########           Internal_energy_repulsive:           12.997705

@<TRIPOS>MOLECULE
ZINC000482139334
 43 47 1 0 0
SMALL
USER_CHARGES


@<TRIPOS>ATOM
      1 O1         -9.7599   -1.6171   55.5098 O.2     1  ZINC000482139334   -0.4800
      2 C2         -9.4321   -0.4724   55.2795 C.2     1  ZINC000482139334    0.5500
      3 N3         -9.2299    0.3882   56.2969 N.am    1  ZINC000482139334   -0.6100
      4 C4         -9.4023   -0.0334   57.6060 C.2     1  ZINC000482139334    0.4300
      5 N5         -9.1294    0.6714   58.6739 N.2     1  ZINC000482139334   -0.4800
      6 C6         -9.4292   -0.0736   59.7701 C.2     1  ZINC000482139334    0.0400
      7 C7         -9.2724    0.3429   61.1853 C.ar    1  ZINC000482139334   -0.0500
      8 C8         -9.4625   -0.5802   62.2111 C.ar    1  ZINC000482139334   -0.0800
      9 C9         -9.3149   -0.1876   63.5263 C.ar    1  ZINC000482139334   -0.1300
     10 C10        -8.9793    1.1197   63.8280 C.ar    1  ZINC000482139334   -0.0800
     11 C11        -8.7894    2.0423   62.8152 C.ar    1  ZINC000482139334   -0.1600
     12 C12        -8.9282    1.6598   61.4942 C.ar    1  ZINC000482139334    0.1300
     13 F13        -8.7425    2.5611   60.5050 F       1  ZINC000482139334   -0.1200
     14 C14        -9.8979   -1.2661   59.3322 C.2     1  ZINC000482139334   -0.0600
     15 O15        -9.8817   -1.2285   57.9835 O.3     1  ZINC000482139334   -0.1800
     16 C16        -9.2447   -0.0140   53.8562 C.3     1  ZINC000482139334   -0.1800
     17 H17        -8.2194    0.2186   53.5683 H       1  ZINC000482139334    0.1400
     18 C18       -10.1574   -0.6259   52.7900 C.3     1  ZINC000482139334   -0.1200
     19 C19       -10.3573    0.8200   53.2330 C.3     1  ZINC000482139334   -0.0500
     20 C20       -11.5920    1.2381   54.0488 C.3     1  ZINC000482139334   -0.0700
     21 C21       -12.2778    2.2525   53.1069 C.3     1  ZINC000482139334   -0.0900
     22 C22       -11.1658    2.8057   52.2406 C.ar    1  ZINC000482139334   -0.0800
     23 C23       -11.1249    3.9424   51.4516 C.ar    1  ZINC000482139334   -0.1100
     24 C24        -9.9848    4.2524   50.7359 C.ar    1  ZINC000482139334   -0.1100
     25 C25        -8.8801    3.4249   50.8070 C.ar    1  ZINC000482139334   -0.1200
     26 C26        -8.9181    2.2902   51.5937 C.ar    1  ZINC000482139334   -0.1000
     27 C27       -10.0593    1.9771   52.3126 C.ar    1  ZINC000482139334   -0.0700
     28 H28        -8.9639    1.3027   56.1130 H       1  ZINC000482139334    0.4400
     29 H29        -9.7253   -1.6016   61.9778 H       1  ZINC000482139334    0.1300
     30 H30        -9.4622   -0.9032   64.3218 H       1  ZINC000482139334    0.1400
     31 H31        -8.8655    1.4216   64.8588 H       1  ZINC000482139334    0.1400
     32 H32        -8.5281    3.0620   63.0566 H       1  ZINC000482139334    0.1400
     33 H33       -10.2263   -2.0911   59.9469 H       1  ZINC000482139334    0.2200
     34 H34        -9.7329   -0.7950   51.8005 H       1  ZINC000482139334    0.1200
     35 H35       -10.8935   -1.3599   53.1182 H       1  ZINC000482139334    0.1100
     36 H36       -12.2410    0.3827   54.2364 H       1  ZINC000482139334    0.0800
     37 H37       -11.2964    1.7148   54.9834 H       1  ZINC000482139334    0.0900
     38 H38       -13.0237    1.7512   52.4902 H       1  ZINC000482139334    0.0800
     39 H39       -12.7400    3.0526   53.6852 H       1  ZINC000482139334    0.0800
     40 H40       -11.9880    4.5892   51.3952 H       1  ZINC000482139334    0.1200
     41 H41        -9.9570    5.1400   50.1213 H       1  ZINC000482139334    0.1300
     42 H42        -7.9879    3.6652   50.2477 H       1  ZINC000482139334    0.1300
     43 H43        -8.0543    1.6442   51.6479 H       1  ZINC000482139334    0.1200
@<TRIPOS>BOND
     1     1     2    2
     2     2     3   am
     3     2    16    1
     4     3     4    1
     5     3    28    1
     6     4    15    1
     7     4     5    2
     8     5     6    1
     9     6     7    1
    10     6    14    2
    11     7    12   ar
    12     7     8   ar
    13     8     9   ar
    14     8    29    1
    15     9    10   ar
    16     9    30    1
    17    10    11   ar
    18    10    31    1
    19    11    12   ar
    20    11    32    1
    21    12    13    1
    22    14    15    1
    23    14    33    1
    24    16    17    1
    25    16    19    1
    26    16    18    1
    27    18    19    1
    28    18    34    1
    29    18    35    1
    30    19    27    1
    31    19    20    1
    32    20    21    1
    33    20    36    1
    34    20    37    1
    35    21    22    1
    36    21    38    1
    37    21    39    1
    38    22    27   ar
    39    22    23   ar
    40    23    24   ar
    41    23    40    1
    42    24    25   ar
    43    24    41    1
    44    25    26   ar
    45    25    42    1
    46    26    27   ar
    47    26    43    1
@<TRIPOS>SUBSTRUCTURE
     1 ZINC000482139334        1 TEMP              0 ****  ****    0 ROOT


##########                                Name:    ZINC000587344575
##########                DOCK_Rotatable_Bonds:                   7
##########                         Heavy_Atoms:                  30
##########                    Molecular_Weight:             408.475
##########                DOCK_Rotatable_Bonds:                   7
##########                       Formal_Charge:          -0.0100002
##########                     HBond_Acceptors:                   7
##########                        HBond_Donors:                   2
##########                         Heavy_Atoms:                  30
##########                          Grid_Score:          -23.339083
##########                     Grid_vdw_energy:          -25.020273
##########                      Grid_es_energy:            1.681190
##########           Internal_energy_repulsive:          143.060242

@<TRIPOS>MOLECULE
ZINC000587344575
 55 57 1 0 0
SMALL
USER_CHARGES


@<TRIPOS>ATOM
      1 C1        -10.4405    3.1289   62.1278 C.3     1  ZINC000587344575   -0.1200
      2 C2         -9.8725    1.8196   61.6439 C.ar    1  ZINC000587344575    0.0000
      3 C3         -9.9376    1.4918   60.3086 C.ar    1  ZINC000587344575   -0.1600
      4 C4         -9.4129    0.2833   59.8609 C.ar    1  ZINC000587344575    0.1800
      5 N5         -9.4802   -0.0455   58.5075 N.am    1  ZINC000587344575   -0.6700
      6 C6         -9.0865    0.8465   57.5770 C.2     1  ZINC000587344575    0.5200
      7 O7         -8.6739    1.9351   57.9168 O.2     1  ZINC000587344575   -0.5000
      8 C8         -9.1592    0.4912   56.1142 C.3     1  ZINC000587344575   -0.1200
      9 H9         -9.2011   -0.5908   55.9900 H       1  ZINC000587344575    0.1100
     10 C10        -7.9406    1.0711   55.3601 C.3     1  ZINC000587344575   -0.1200
     11 C11        -8.5561    1.5454   54.0197 C.3     1  ZINC000587344575    0.0400
     12 N12        -9.8826    2.0773   54.4242 N.3     1  ZINC000587344575   -0.4800
     13 C13       -10.7525    2.1292   53.3371 C.ar    1  ZINC000587344575    0.0700
     14 C14       -11.1551    0.9530   52.7140 C.ar    1  ZINC000587344575   -0.1200
     15 C15       -12.0146    1.0001   51.6387 C.ar    1  ZINC000587344575   -0.0700
     16 C16       -12.4833    2.2317   51.1733 C.ar    1  ZINC000587344575    0.0000
     17 C17       -13.3774    2.2832   50.0559 C.1     1  ZINC000587344575    0.2500
     18 N18       -14.0865    2.3242   49.1694 N.1     1  ZINC000587344575   -0.4000
     19 C19       -12.0777    3.4136   51.8014 C.ar    1  ZINC000587344575   -0.1000
     20 C20       -11.2218    3.3594   52.8800 C.ar    1  ZINC000587344575    0.1300
     21 F21       -10.8293    4.5000   53.4883 F       1  ZINC000587344575   -0.1200
     22 C22       -10.3888    1.1519   55.4641 C.3     1  ZINC000587344575    0.0500
     23 C23        -8.8210   -0.5974   60.7604 C.ar    1  ZINC000587344575   -0.1400
     24 C24        -8.7524   -0.2757   62.0974 C.ar    1  ZINC000587344575   -0.0600
     25 C25        -9.2736    0.9395   62.5495 C.ar    1  ZINC000587344575   -0.1600
     26 C26        -9.2015    1.2879   63.9821 C.2     1  ZINC000587344575    0.5600
     27 O27        -9.0956    2.4509   64.3202 O.2     1  ZINC000587344575   -0.5300
     28 N28        -9.2531    0.3168   64.9152 N.am    1  ZINC000587344575   -0.7200
     29 C29        -9.1797    0.6625   66.3369 C.3     1  ZINC000587344575    0.1400
     30 C30        -7.7174    0.6633   66.7868 C.3     1  ZINC000587344575   -0.1600
     31 C31        -9.7813    2.0522   66.5555 C.3     1  ZINC000587344575   -0.1600
     32 H32        -9.6417    3.8670   62.2000 H       1  ZINC000587344575    0.0800
     33 H33       -11.1963    3.4790   61.4248 H       1  ZINC000587344575    0.0600
     34 H34       -10.8944    2.9877   63.1087 H       1  ZINC000587344575    0.1000
     35 H35       -10.3968    2.1732   59.6077 H       1  ZINC000587344575    0.1300
     36 H36        -9.8102   -0.9161   58.2357 H       1  ZINC000587344575    0.4100
     37 H37        -7.5127    1.9115   55.9068 H       1  ZINC000587344575    0.0900
     38 H38        -7.1903    0.2993   55.1883 H       1  ZINC000587344575    0.0900
     39 H39        -7.9466    2.3308   53.5729 H       1  ZINC000587344575    0.0900
     40 H40        -8.6711    0.7079   53.3316 H       1  ZINC000587344575    0.0600
     41 H41       -10.7930    0.0011   53.0735 H       1  ZINC000587344575    0.1400
     42 H42       -12.3258    0.0859   51.1554 H       1  ZINC000587344575    0.1400
     43 H43       -12.4382    4.3670   51.4443 H       1  ZINC000587344575    0.1500
     44 H44       -11.0236    0.3922   55.0079 H       1  ZINC000587344575    0.0600
     45 H45       -10.9514    1.7081   56.2141 H       1  ZINC000587344575    0.1100
     46 H46        -8.4150   -1.5348   60.4097 H       1  ZINC000587344575    0.1400
     47 H47        -8.2928   -0.9599   62.7953 H       1  ZINC000587344575    0.1300
     48 H48        -9.3387   -0.6110   64.6454 H       1  ZINC000587344575    0.4000
     49 H49        -9.7383   -0.0708   66.9184 H       1  ZINC000587344575    0.0900
     50 H50        -7.1587    1.3967   66.2052 H       1  ZINC000587344575    0.0600
     51 H51        -7.6628    0.9205   67.8446 H       1  ZINC000587344575    0.0700
     52 H52        -7.2887   -0.3267   66.6311 H       1  ZINC000587344575    0.0600
     53 H53        -9.2227    2.7856   65.9740 H       1  ZINC000587344575    0.0600
     54 H54       -10.8231    2.0517   66.2350 H       1  ZINC000587344575    0.0600
     55 H55        -9.7268    2.3094   67.6133 H       1  ZINC000587344575    0.0700
@<TRIPOS>BOND
     1     1     2    1
     2     1    32    1
     3     1    33    1
     4     1    34    1
     5     2    25   ar
     6     2     3   ar
     7     3     4   ar
     8     3    35    1
     9     4     5    1
    10     4    23   ar
    11     5     6   am
    12     5    36    1
    13     6     7    2
    14     6     8    1
    15     8     9    1
    16     8    22    1
    17     8    10    1
    18    10    11    1
    19    10    37    1
    20    10    38    1
    21    11    12    1
    22    11    39    1
    23    11    40    1
    24    12    13    1
    25    12    22    1
    26    13    20   ar
    27    13    14   ar
    28    14    15   ar
    29    14    41    1
    30    15    16   ar
    31    15    42    1
    32    16    17    1
    33    16    19   ar
    34    17    18    3
    35    19    20   ar
    36    19    43    1
    37    20    21    1
    38    22    44    1
    39    22    45    1
    40    23    24   ar
    41    23    46    1
    42    24    25   ar
    43    24    47    1
    44    25    26    1
    45    26    27    2
    46    26    28   am
    47    28    29    1
    48    28    48    1
    49    29    30    1
    50    29    31    1
    51    29    49    1
    52    30    50    1
    53    30    51    1
    54    30    52    1
    55    31    53    1
    56    31    54    1
    57    31    55    1
@<TRIPOS>SUBSTRUCTURE
     1 ZINC000587344575        1 TEMP              0 ****  ****    0 ROOT


##########                                Name:    ZINC000002873519
##########                DOCK_Rotatable_Bonds:                   5
##########                         Heavy_Atoms:                  25
##########                    Molecular_Weight:             375.207
##########                DOCK_Rotatable_Bonds:                   5
##########                       Formal_Charge:               -0.02
##########                     HBond_Acceptors:                   6
##########                        HBond_Donors:                   0
##########                         Heavy_Atoms:                  25
##########                          Grid_Score:          -23.240545
##########                     Grid_vdw_energy:          -23.249132
##########                      Grid_es_energy:            0.008587
##########           Internal_energy_repulsive:            9.369113

@<TRIPOS>MOLECULE
ZINC000002873519
 37 39 1 0 0
SMALL
USER_CHARGES


@<TRIPOS>ATOM
      1 C1         -9.5388    1.6743   52.6677 C.3     1  ZINC000002873519   -0.1500
      2 C2         -8.5509    0.5416   52.5570 C.2     1  ZINC000002873519    0.4500
      3 O3         -8.8373   -0.4507   51.9299 O.2     1  ZINC000002873519   -0.4800
      4 O4         -7.3523    0.6352   53.1552 O.3     1  ZINC000002873519   -0.2900
      5 C5         -7.2443    1.5129   54.1849 C.ar    1  ZINC000002873519    0.1200
      6 C6         -7.6654    1.1520   55.4539 C.ar    1  ZINC000002873519   -0.1100
      7 C7         -7.5549    2.0457   56.5023 C.ar    1  ZINC000002873519   -0.0800
      8 C8         -7.0227    3.3097   56.2961 C.ar    1  ZINC000002873519   -0.0400
      9 Cl9        -6.8911    4.4189   57.6250 Cl      1  ZINC000002873519   -0.0500
     10 C10        -6.5976    3.6893   55.0412 C.ar    1  ZINC000002873519   -0.0800
     11 C11        -6.6986    2.7916   53.9694 C.ar    1  ZINC000002873519   -0.0700
     12 C12        -6.2494    3.1855   52.6334 C.2     1  ZINC000002873519    0.0400
     13 C13        -4.9296    3.5346   52.4236 C.2     1  ZINC000002873519   -0.1900
     14 C14        -3.8352    3.5649   53.4092 C.2     1  ZINC000002873519   -0.2000
     15 C15        -2.7318    3.9664   52.7435 C.2     1  ZINC000002873519    0.1200
     16 C16        -1.4009    4.1328   53.3606 C.ar    1  ZINC000002873519   -0.0400
     17 C17        -1.1932    3.7615   54.6910 C.ar    1  ZINC000002873519   -0.0800
     18 C18         0.0523    3.9196   55.2614 C.ar    1  ZINC000002873519   -0.1100
     19 C19         1.0959    4.4455   54.5183 C.ar    1  ZINC000002873519   -0.0200
     20 Cl20        2.6609    4.6413   55.2438 Cl      1  ZINC000002873519   -0.0600
     21 C21         0.8966    4.8156   53.1987 C.ar    1  ZINC000002873519   -0.1100
     22 C22        -0.3426    4.6568   52.6145 C.ar    1  ZINC000002873519   -0.0800
     23 O23        -3.0012    4.1952   51.4426 O.3     1  ZINC000002873519   -0.2600
     24 C24        -4.2944    3.9554   51.1603 C.2     1  ZINC000002873519    0.5200
     25 O25        -4.8360    4.0713   50.0770 O.2     1  ZINC000002873519   -0.4200
     26 H26       -10.1682    1.5229   53.5446 H       1  ZINC000002873519    0.1100
     27 H27        -9.0009    2.6173   52.7648 H       1  ZINC000002873519    0.1000
     28 H28       -10.1617    1.7018   51.7737 H       1  ZINC000002873519    0.1100
     29 H29        -8.0814    0.1700   55.6245 H       1  ZINC000002873519    0.1500
     30 H30        -7.8856    1.7577   57.4893 H       1  ZINC000002873519    0.1500
     31 H31        -6.1842    4.6747   54.8848 H       1  ZINC000002873519    0.1500
     32 H32        -6.9498    3.2032   51.8116 H       1  ZINC000002873519    0.1500
     33 H33        -3.9024    3.3158   54.4579 H       1  ZINC000002873519    0.1700
     34 H34        -2.0065    3.3518   55.2718 H       1  ZINC000002873519    0.1400
     35 H35         0.2142    3.6328   56.2901 H       1  ZINC000002873519    0.1400
     36 H36         1.7144    5.2255   52.6245 H       1  ZINC000002873519    0.1400
     37 H37        -0.4968    4.9458   51.5854 H       1  ZINC000002873519    0.1400
@<TRIPOS>BOND
     1     1     2    1
     2     1    26    1
     3     1    27    1
     4     1    28    1
     5     2     3    2
     6     2     4    1
     7     4     5    1
     8     5    11   ar
     9     5     6   ar
    10     6     7   ar
    11     6    29    1
    12     7     8   ar
    13     7    30    1
    14     8     9    1
    15     8    10   ar
    16    10    11   ar
    17    10    31    1
    18    11    12    1
    19    12    13    2
    20    12    32    1
    21    13    24    1
    22    13    14    1
    23    14    15    2
    24    14    33    1
    25    15    16    1
    26    15    23    1
    27    16    22   ar
    28    16    17   ar
    29    17    18   ar
    30    17    34    1
    31    18    19   ar
    32    18    35    1
    33    19    20    1
    34    19    21   ar
    35    21    22   ar
    36    21    36    1
    37    22    37    1
    38    23    24    1
    39    24    25    2
@<TRIPOS>SUBSTRUCTURE
     1 ZINC000002873519        1 TEMP              0 ****  ****    0 ROOT


##########                                Name:    ZINC000279974681
##########                DOCK_Rotatable_Bonds:                   4
##########                         Heavy_Atoms:                  23
##########                    Molecular_Weight:              338.79
##########                DOCK_Rotatable_Bonds:                   4
##########                       Formal_Charge:           0.0100008
##########                     HBond_Acceptors:                   7
##########                        HBond_Donors:                   1
##########                         Heavy_Atoms:                  23
##########                          Grid_Score:          -23.120314
##########                     Grid_vdw_energy:          -23.466587
##########                      Grid_es_energy:            0.346274
##########           Internal_energy_repulsive:            7.063881

@<TRIPOS>MOLECULE
ZINC000279974681
 42 45 1 0 0
SMALL
USER_CHARGES


@<TRIPOS>ATOM
      1 C1         -8.8501   -0.2110   65.7979 C.3     1  ZINC000279974681   -0.1400
      2 C2         -9.3994    0.4949   64.5565 C.3     1  ZINC000279974681    0.0700
      3 H3        -10.3205    0.0067   64.2379 H       1  ZINC000279974681    0.0600
      4 C4         -8.3651    0.4241   63.4274 C.3     1  ZINC000279974681    0.1000
      5 N5         -8.8342    1.2652   62.3149 N.am    1  ZINC000279974681   -0.6300
      6 C6         -8.8845    0.7861   61.0561 C.2     1  ZINC000279974681    0.7100
      7 O7         -8.5392   -0.3569   60.8264 O.2     1  ZINC000279974681   -0.5600
      8 N8         -9.3175    1.5739   60.0519 N.am    1  ZINC000279974681   -0.6700
      9 C9         -9.3697    1.0754   58.7426 C.ar    1  ZINC000279974681    0.2000
     10 C10       -10.2598    0.0605   58.4213 C.ar    1  ZINC000279974681   -0.1200
     11 C11       -10.3114   -0.4313   57.1275 C.ar    1  ZINC000279974681    0.0700
     12 C12        -9.4692    0.0939   56.1508 C.ar    1  ZINC000279974681    0.0200
     13 C13        -8.5811    1.1069   56.4750 C.ar    1  ZINC000279974681   -0.0700
     14 C14        -8.5342    1.6015   57.7652 C.ar    1  ZINC000279974681   -0.0700
     15 Cl15       -7.4202    2.8705   58.1677 Cl      1  ZINC000279974681   -0.0500
     16 O16        -9.7115   -0.5531   54.9723 O.3     1  ZINC000279974681   -0.3000
     17 C17       -10.4182   -1.7549   55.3319 C.3     1  ZINC000279974681    0.2100
     18 O18       -11.0812   -1.4067   56.5616 O.3     1  ZINC000279974681   -0.3000
     19 C19        -9.2474    2.6448   62.6172 C.3     1  ZINC000279974681    0.0800
     20 C20       -10.2387    2.6074   63.7859 C.3     1  ZINC000279974681    0.1100
     21 H21       -11.1631    2.1277   63.4640 H       1  ZINC000279974681    0.0700
     22 C22       -10.5379    4.0349   64.2481 C.3     1  ZINC000279974681   -0.1600
     23 C23       -11.4259    4.8972   63.3487 C.3     1  ZINC000279974681   -0.1700
     24 C24       -11.9734    4.3545   64.6703 C.3     1  ZINC000279974681   -0.1600
     25 O25        -9.6674    1.8648   64.8656 O.3     1  ZINC000279974681   -0.3600
     26 H26        -9.5853   -0.1587   66.6009 H       1  ZINC000279974681    0.0700
     27 H27        -8.6443   -1.2549   65.5611 H       1  ZINC000279974681    0.0800
     28 H28        -7.9291    0.2777   66.1160 H       1  ZINC000279974681    0.0700
     29 H29        -7.4041    0.7926   63.7862 H       1  ZINC000279974681    0.0800
     30 H30        -8.2607   -0.6069   63.0894 H       1  ZINC000279974681    0.1100
     31 H31        -9.5930    2.4857   60.2352 H       1  ZINC000279974681    0.4100
     32 H32       -10.9121   -0.3460   59.1801 H       1  ZINC000279974681    0.1800
     33 H33        -7.9277    1.5140   55.7175 H       1  ZINC000279974681    0.1500
     34 H34       -11.1468   -2.0150   54.5641 H       1  ZINC000279974681    0.1400
     35 H35        -9.7197   -2.5762   55.4926 H       1  ZINC000279974681    0.0900
     36 H36        -8.3752    3.2368   62.8945 H       1  ZINC000279974681    0.0900
     37 H37        -9.7272    3.0843   61.7428 H       1  ZINC000279974681    0.0900
     38 H38        -9.7320    4.5332   64.7870 H       1  ZINC000279974681    0.1100
     39 H39       -11.2042    5.9631   63.2957 H       1  ZINC000279974681    0.1000
     40 H40       -11.7969    4.4475   62.4278 H       1  ZINC000279974681    0.1000
     41 H41       -12.7046    3.5478   64.6188 H       1  ZINC000279974681    0.1000
     42 H42       -12.1118    5.0633   65.4867 H       1  ZINC000279974681    0.1000
@<TRIPOS>BOND
     1     1     2    1
     2     1    26    1
     3     1    27    1
     4     1    28    1
     5     2     3    1
     6     2    25    1
     7     2     4    1
     8     4     5    1
     9     4    29    1
    10     4    30    1
    11     5     6   am
    12     5    19    1
    13     6     7    2
    14     6     8   am
    15     8     9    1
    16     8    31    1
    17     9    14   ar
    18     9    10   ar
    19    10    11   ar
    20    10    32    1
    21    11    18    1
    22    11    12   ar
    23    12    13   ar
    24    12    16    1
    25    13    14   ar
    26    13    33    1
    27    14    15    1
    28    16    17    1
    29    17    18    1
    30    17    34    1
    31    17    35    1
    32    19    20    1
    33    19    36    1
    34    19    37    1
    35    20    21    1
    36    20    22    1
    37    20    25    1
    38    22    24    1
    39    22    23    1
    40    22    38    1
    41    23    24    1
    42    23    39    1
    43    23    40    1
    44    24    41    1
    45    24    42    1
@<TRIPOS>SUBSTRUCTURE
     1 ZINC000279974681        1 TEMP              0 ****  ****    0 ROOT


##########                                Name:    ZINC000656860804
##########                DOCK_Rotatable_Bonds:                   2
##########                         Heavy_Atoms:                  19
##########                    Molecular_Weight:             388.068
##########                DOCK_Rotatable_Bonds:                   2
##########                       Formal_Charge:          8.9407e-08
##########                     HBond_Acceptors:                   8
##########                        HBond_Donors:                   1
##########                         Heavy_Atoms:                  19
##########                          Grid_Score:          -23.086754
##########                     Grid_vdw_energy:          -21.327633
##########                      Grid_es_energy:           -1.759120
##########           Internal_energy_repulsive:           13.888508

@<TRIPOS>MOLECULE
ZINC000656860804
 28 29 1 0 0
SMALL
USER_CHARGES


@<TRIPOS>ATOM
      1 O1         -8.2694    0.1372   58.7633 O.2     1  ZINC000656860804   -0.5400
      2 C2         -8.7955    0.2079   59.8538 C.2     1  ZINC000656860804    0.5100
      3 C3        -10.0120    1.0794   60.0086 C.3     1  ZINC000656860804    0.1100
      4 N4        -10.6508    0.7805   61.2988 N.am    1  ZINC000656860804   -1.0000
      5 S5        -12.2952    0.6388   61.4338 S.o2    1  ZINC000656860804    2.6900
      6 O6        -12.5528    0.2025   62.7614 O.2     1  ZINC000656860804   -0.9200
      7 O7        -12.8468    1.8281   60.8857 O.2     1  ZINC000656860804   -0.9300
      8 C8        -12.7942   -0.6761   60.3724 C.ar    1  ZINC000656860804   -0.6500
      9 C9        -11.8432   -1.4915   59.7888 C.ar    1  ZINC000656860804    0.0100
     10 C10       -12.2345   -2.5241   58.9552 C.ar    1  ZINC000656860804   -0.0400
     11 Cl11      -11.0399   -3.5486   58.2225 Cl      1  ZINC000656860804   -0.0200
     12 C12       -13.5791   -2.7404   58.7060 C.ar    1  ZINC000656860804    0.0200
     13 Cl13      -14.0710   -4.0363   57.6608 Cl      1  ZINC000656860804   -0.0100
     14 C14       -14.5304   -1.9239   59.2907 C.ar    1  ZINC000656860804   -0.0900
     15 C15       -14.1383   -0.8956   60.1282 C.ar    1  ZINC000656860804    0.0100
     16 Br16      -15.4386    0.2207   60.9273 Br      1  ZINC000656860804    0.0100
     17 C17        -9.7688    0.6117   62.4661 C.3     1  ZINC000656860804    0.0900
     18 C18        -8.8423   -0.5756   62.1969 C.3     1  ZINC000656860804    0.0800
     19 N19        -8.2723   -0.4950   60.8594 N.am    1  ZINC000656860804   -0.7100
     20 H20        -9.7155    2.1280   59.9822 H       1  ZINC000656860804    0.1200
     21 H21       -10.7123    0.8759   59.1986 H       1  ZINC000656860804    0.1200
     22 H22       -10.7944   -1.3222   59.9830 H       1  ZINC000656860804    0.1700
     23 H23       -15.5794   -2.0919   59.0963 H       1  ZINC000656860804    0.1700
     24 H24        -9.1762    1.5148   62.6129 H       1  ZINC000656860804    0.1000
     25 H25       -10.3685    0.4162   63.3550 H       1  ZINC000656860804    0.1200
     26 H26        -8.0382   -0.5772   62.9327 H       1  ZINC000656860804    0.1000
     27 H27        -9.4107   -1.5015   62.2857 H       1  ZINC000656860804    0.0800
     28 H28        -7.4506   -0.9817   60.6893 H       1  ZINC000656860804    0.4000
@<TRIPOS>BOND
     1     1     2    2
     2     2    19   am
     3     2     3    1
     4     3     4    1
     5     3    20    1
     6     3    21    1
     7     4     5   am
     8     4    17    1
     9     5     6    2
    10     5     7    2
    11     5     8    1
    12     8    15   ar
    13     8     9   ar
    14     9    10   ar
    15     9    22    1
    16    10    11    1
    17    10    12   ar
    18    12    13    1
    19    12    14   ar
    20    14    15   ar
    21    14    23    1
    22    15    16    1
    23    17    18    1
    24    17    24    1
    25    17    25    1
    26    18    19    1
    27    18    26    1
    28    18    27    1
    29    19    28    1
@<TRIPOS>SUBSTRUCTURE
     1 ZINC000656860804        1 TEMP              0 ****  ****    0 ROOT


##########                                Name:    ZINC000965273005
##########                DOCK_Rotatable_Bonds:                   7
##########                         Heavy_Atoms:                  27
##########                    Molecular_Weight:             368.436
##########                DOCK_Rotatable_Bonds:                   7
##########                       Formal_Charge:           0.0100003
##########                     HBond_Acceptors:                   7
##########                        HBond_Donors:                   2
##########                         Heavy_Atoms:                  27
##########                          Grid_Score:          -22.655888
##########                     Grid_vdw_energy:          -21.641020
##########                      Grid_es_energy:           -1.014868
##########           Internal_energy_repulsive:           10.053353

@<TRIPOS>MOLECULE
ZINC000965273005
 51 54 1 0 0
SMALL
USER_CHARGES


@<TRIPOS>ATOM
      1 C1        -11.3156    4.6514   53.0860 C.3     1  ZINC000965273005   -0.1200
      2 C2        -10.9346    4.6917   51.6285 C.ar    1  ZINC000965273005   -0.0300
      3 C3         -9.6978    5.1713   51.2503 C.ar    1  ZINC000965273005   -0.1200
      4 C4         -9.3465    5.2090   49.9124 C.ar    1  ZINC000965273005   -0.0900
      5 C5        -10.2315    4.7661   48.9458 C.ar    1  ZINC000965273005   -0.1300
      6 C6        -11.4718    4.2839   49.3106 C.ar    1  ZINC000965273005   -0.0900
      7 C7        -11.8303    4.2383   50.6585 C.ar    1  ZINC000965273005   -0.1300
      8 C8        -13.1577    3.7229   51.0567 C.2     1  ZINC000965273005    0.5800
      9 O9        -13.9906    4.4795   51.5162 O.2     1  ZINC000965273005   -0.5200
     10 N10       -13.4440    2.4141   50.9100 N.am    1  ZINC000965273005   -0.6100
     11 C11       -12.5294    1.3892   50.3747 C.3     1  ZINC000965273005    0.0900
     12 C12       -13.0394    0.0529   50.9695 C.3     1  ZINC000965273005    0.1500
     13 H13       -12.7525   -0.7896   50.3402 H       1  ZINC000965273005    0.1200
     14 N14       -12.5557   -0.1304   52.3401 N.am    1  ZINC000965273005   -0.7100
     15 C15       -11.3999   -0.7863   52.5647 C.2     1  ZINC000965273005    0.6000
     16 O16       -10.7593   -1.2273   51.6298 O.2     1  ZINC000965273005   -0.5400
     17 C17       -10.9122   -0.9693   53.9440 C.2     1  ZINC000965273005   -0.2800
     18 C18       -11.6373   -1.4600   55.0111 C.2     1  ZINC000965273005    0.1000
     19 N19       -10.8256   -1.4644   56.0805 N.pl3   1  ZINC000965273005   -0.3600
     20 C20       -11.1878   -1.9095   57.4285 C.3     1  ZINC000965273005    0.1000
     21 N21        -9.5749   -0.9730   55.6903 N.2     1  ZINC000965273005   -0.3000
     22 C22        -9.6134   -0.6809   54.4195 C.2     1  ZINC000965273005    0.1700
     23 C23        -8.4752   -0.1238   53.6040 C.3     1  ZINC000965273005   -0.0800
     24 C24        -8.6890    1.2309   52.9257 C.3     1  ZINC000965273005   -0.1700
     25 C25        -7.7649    1.1208   54.1401 C.3     1  ZINC000965273005   -0.1600
     26 C26       -14.5759    0.2675   50.9451 C.3     1  ZINC000965273005    0.0900
     27 H27       -14.9818    0.0381   49.9598 H       1  ZINC000965273005    0.0900
     28 O28       -15.2130   -0.5248   51.9493 O.3     1  ZINC000965273005   -0.5500
     29 C29       -14.7179    1.7707   51.2633 C.3     1  ZINC000965273005    0.0600
     30 H30       -11.1005    3.6623   53.4905 H       1  ZINC000965273005    0.0800
     31 H31       -10.7419    5.4000   53.6323 H       1  ZINC000965273005    0.0700
     32 H32       -12.3799    4.8626   53.1893 H       1  ZINC000965273005    0.0700
     33 H33        -9.0024    5.5185   52.0001 H       1  ZINC000965273005    0.1300
     34 H34        -8.3772    5.5861   49.6216 H       1  ZINC000965273005    0.1300
     35 H35        -9.9512    4.7982   47.9033 H       1  ZINC000965273005    0.1300
     36 H36       -12.1619    3.9388   48.5549 H       1  ZINC000965273005    0.1300
     37 H37       -12.5822    1.3648   49.2863 H       1  ZINC000965273005    0.0900
     38 H38       -11.5079    1.5845   50.7015 H       1  ZINC000965273005    0.0900
     39 H39       -13.0672    0.2202   53.0860 H       1  ZINC000965273005    0.4000
     40 H40       -12.6684   -1.7808   54.9900 H       1  ZINC000965273005    0.1800
     41 H41       -10.9753   -2.9738   57.5292 H       1  ZINC000965273005    0.0800
     42 H42       -10.6074   -1.3519   58.1634 H       1  ZINC000965273005    0.1000
     43 H43       -12.2505   -1.7337   57.5956 H       1  ZINC000965273005    0.0900
     44 H44        -7.8696   -0.8609   53.0767 H       1  ZINC000965273005    0.1400
     45 H45        -8.2242    1.3852   51.9519 H       1  ZINC000965273005    0.1000
     46 H46        -9.6529    1.7192   53.0695 H       1  ZINC000965273005    0.1000
     47 H47        -8.1208    1.5366   55.0827 H       1  ZINC000965273005    0.0900
     48 H48        -6.6921    1.2026   53.9653 H       1  ZINC000965273005    0.1000
     49 H49       -15.1055   -0.1825   52.8472 H       1  ZINC000965273005    0.3900
     50 H50       -14.9259    1.9070   52.3245 H       1  ZINC000965273005    0.0800
     51 H51       -15.5227    2.2014   50.6673 H       1  ZINC000965273005    0.0800
@<TRIPOS>BOND
     1     1     2    1
     2     1    30    1
     3     1    31    1
     4     1    32    1
     5     2     7   ar
     6     2     3   ar
     7     3     4   ar
     8     3    33    1
     9     4     5   ar
    10     4    34    1
    11     5     6   ar
    12     5    35    1
    13     6     7   ar
    14     6    36    1
    15     7     8    1
    16     8     9    2
    17     8    10   am
    18    10    29    1
    19    10    11    1
    20    11    12    1
    21    11    37    1
    22    11    38    1
    23    12    13    1
    24    12    14    1
    25    12    26    1
    26    14    15   am
    27    14    39    1
    28    15    16    2
    29    15    17    1
    30    17    22    1
    31    17    18    2
    32    18    19    1
    33    18    40    1
    34    19    20    1
    35    19    21    1
    36    20    41    1
    37    20    42    1
    38    20    43    1
    39    21    22    2
    40    22    23    1
    41    23    25    1
    42    23    24    1
    43    23    44    1
    44    24    25    1
    45    24    45    1
    46    24    46    1
    47    25    47    1
    48    25    48    1
    49    26    27    1
    50    26    28    1
    51    26    29    1
    52    28    49    1
    53    29    50    1
    54    29    51    1
@<TRIPOS>SUBSTRUCTURE
     1 ZINC000965273005        1 TEMP              0 ****  ****    0 ROOT


##########                                Name:    ZINC000931749147
##########                DOCK_Rotatable_Bonds:                   5
##########                         Heavy_Atoms:                  25
##########                    Molecular_Weight:             354.397
##########                DOCK_Rotatable_Bonds:                   5
##########                       Formal_Charge:        -4.76837e-07
##########                     HBond_Acceptors:                   7
##########                        HBond_Donors:                   1
##########                         Heavy_Atoms:                  25
##########                          Grid_Score:          -22.565409
##########                     Grid_vdw_energy:          -21.920633
##########                      Grid_es_energy:           -0.644775
##########           Internal_energy_repulsive:           83.442894

@<TRIPOS>MOLECULE
ZINC000931749147
 49 51 1 0 0
SMALL
USER_CHARGES


@<TRIPOS>ATOM
      1 C1        -11.0472    2.8623   54.2005 C.3     1  ZINC000931749147   -0.1100
      2 C2        -10.4189    1.5111   53.9755 C.ar    1  ZINC000931749147   -0.1300
      3 C3         -9.4925    1.3368   52.9566 C.ar    1  ZINC000931749147    0.1800
      4 N4         -9.1405    2.4164   52.1369 N.am    1  ZINC000931749147   -0.6800
      5 C5         -7.9363    3.0051   52.2780 C.2     1  ZINC000931749147    0.7100
      6 O6         -7.1555    2.5987   53.1169 O.2     1  ZINC000931749147   -0.5500
      7 N7         -7.5975    4.0440   51.4892 N.am    1  ZINC000931749147   -0.6200
      8 C8         -8.5256    4.5533   50.4672 C.3     1  ZINC000931749147    0.0700
      9 C9         -7.7730    4.6483   49.1350 C.3     1  ZINC000931749147    0.0500
     10 O10        -6.5686    5.3941   49.3270 O.3     1  ZINC000931749147   -0.3700
     11 C11        -5.6452    4.7907   50.2366 C.3     1  ZINC000931749147    0.0500
     12 C12        -6.2910    4.7067   51.6288 C.3     1  ZINC000931749147    0.1300
     13 H13        -6.4236    5.7101   52.0332 H       1  ZINC000931749147    0.0900
     14 C14        -5.3971    3.8887   52.5630 C.3     1  ZINC000931749147   -0.1100
     15 C15        -3.9791    4.4630   52.5442 C.3     1  ZINC000931749147   -0.1000
     16 C16        -4.0227    5.9478   52.9185 C.3     1  ZINC000931749147   -0.1500
     17 C17        -2.5937    6.4941   52.9740 C.3     1  ZINC000931749147    0.0600
     18 O18        -1.8315    5.7363   53.9159 O.3     1  ZINC000931749147   -0.3800
     19 C19        -1.7167    4.3492   53.5922 C.3     1  ZINC000931749147    0.0600
     20 C20        -3.1105    3.7166   53.5615 C.3     1  ZINC000931749147   -0.1500
     21 C21        -8.9149    0.0908   52.7512 C.ar    1  ZINC000931749147   -0.1200
     22 C22        -9.2622   -0.9734   53.5603 C.ar    1  ZINC000931749147   -0.1100
     23 C23       -10.1860   -0.7995   54.5764 C.ar    1  ZINC000931749147    0.0500
     24 F24       -10.5242   -1.8419   55.3666 F       1  ZINC000931749147   -0.1300
     25 C25       -10.7604    0.4448   54.7878 C.ar    1  ZINC000931749147    0.0900
     26 F26       -11.6618    0.6130   55.7799 F       1  ZINC000931749147   -0.1200
     27 H27       -10.4372    3.4349   54.8991 H       1  ZINC000931749147    0.0800
     28 H28       -11.1111    3.3957   53.2521 H       1  ZINC000931749147    0.0700
     29 H29       -12.0479    2.7335   54.6130 H       1  ZINC000931749147    0.0800
     30 H30        -9.7633    2.7407   51.4677 H       1  ZINC000931749147    0.4100
     31 H31        -9.3690    3.8706   50.3644 H       1  ZINC000931749147    0.0800
     32 H32        -8.8850    5.5407   50.7569 H       1  ZINC000931749147    0.0900
     33 H33        -7.5285    3.6462   48.7828 H       1  ZINC000931749147    0.0600
     34 H34        -8.3992    5.1513   48.3982 H       1  ZINC000931749147    0.1100
     35 H35        -5.3930    3.7892   49.8883 H       1  ZINC000931749147    0.0600
     36 H36        -4.7406    5.3963   50.2922 H       1  ZINC000931749147    0.1100
     37 H37        -5.7939    3.9336   53.5772 H       1  ZINC000931749147    0.1100
     38 H38        -5.3736    2.8518   52.2276 H       1  ZINC000931749147    0.0700
     39 H39        -3.5527    4.3492   51.5476 H       1  ZINC000931749147    0.0700
     40 H40        -4.5932    6.4957   52.1687 H       1  ZINC000931749147    0.0700
     41 H41        -4.4952    6.0638   53.8939 H       1  ZINC000931749147    0.0700
     42 H42        -2.1355    6.4148   51.9881 H       1  ZINC000931749147    0.0500
     43 H43        -2.6159    7.5396   53.2816 H       1  ZINC000931749147    0.0900
     44 H44        -1.2471    4.2419   52.6144 H       1  ZINC000931749147    0.0500
     45 H45        -1.1072    3.8495   54.3451 H       1  ZINC000931749147    0.0900
     46 H46        -3.5646    3.7877   54.5499 H       1  ZINC000931749147    0.0700
     47 H47        -3.0287    2.6691   53.2716 H       1  ZINC000931749147    0.0700
     48 H48        -8.1942   -0.0462   51.9585 H       1  ZINC000931749147    0.1800
     49 H49        -8.8128   -1.9423   53.3998 H       1  ZINC000931749147    0.1500
@<TRIPOS>BOND
     1     1     2    1
     2     1    27    1
     3     1    28    1
     4     1    29    1
     5     2    25   ar
     6     2     3   ar
     7     3     4    1
     8     3    21   ar
     9     4     5   am
    10     4    30    1
    11     5     6    2
    12     5     7   am
    13     7    12    1
    14     7     8    1
    15     8     9    1
    16     8    31    1
    17     8    32    1
    18     9    10    1
    19     9    33    1
    20     9    34    1
    21    10    11    1
    22    11    12    1
    23    11    35    1
    24    11    36    1
    25    12    13    1
    26    12    14    1
    27    14    15    1
    28    14    37    1
    29    14    38    1
    30    15    20    1
    31    15    16    1
    32    15    39    1
    33    16    17    1
    34    16    40    1
    35    16    41    1
    36    17    18    1
    37    17    42    1
    38    17    43    1
    39    18    19    1
    40    19    20    1
    41    19    44    1
    42    19    45    1
    43    20    46    1
    44    20    47    1
    45    21    22   ar
    46    21    48    1
    47    22    23   ar
    48    22    49    1
    49    23    24    1
    50    23    25   ar
    51    25    26    1
@<TRIPOS>SUBSTRUCTURE
     1 ZINC000931749147        1 TEMP              0 ****  ****    0 ROOT


##########                                Name:    ZINC001211202056
##########                DOCK_Rotatable_Bonds:                   4
##########                         Heavy_Atoms:                  23
##########                    Molecular_Weight:             386.181
##########                DOCK_Rotatable_Bonds:                   4
##########                       Formal_Charge:           0.0199999
##########                     HBond_Acceptors:                  11
##########                        HBond_Donors:                   3
##########                         Heavy_Atoms:                  23
##########                          Grid_Score:          -22.534376
##########                     Grid_vdw_energy:          -21.732368
##########                      Grid_es_energy:           -0.802007
##########           Internal_energy_repulsive:            9.637986

@<TRIPOS>MOLECULE
ZINC001211202056
 31 32 1 0 0
SMALL
USER_CHARGES


@<TRIPOS>ATOM
      1 N1         -8.1046    1.0908   59.8666 N.pl3   1  ZINC001211202056   -0.8500
      2 C2         -8.8215    0.6593   58.7472 C.ar    1  ZINC001211202056    0.2900
      3 C3         -8.8727    1.4495   57.6069 C.ar    1  ZINC001211202056   -0.2000
      4 C4         -9.5823    1.0203   56.5019 C.ar    1  ZINC001211202056    0.0400
      5 C5        -10.2415   -0.1946   56.5303 C.ar    1  ZINC001211202056   -0.7300
      6 S6        -11.1451   -0.7377   55.1185 S.o2    1  ZINC001211202056    2.6900
      7 O7        -11.7006   -2.0005   55.4591 O.2     1  ZINC001211202056   -0.9400
      8 O8        -11.9305    0.3682   54.6951 O.2     1  ZINC001211202056   -0.9300
      9 N9        -10.0463   -1.0202   53.9122 N.am    1  ZINC001211202056   -1.0500
     10 C10        -9.2296    0.0173   53.4537 C.ar    1  ZINC001211202056    0.1600
     11 C11        -7.9749    0.2304   54.0174 C.ar    1  ZINC001211202056   -0.1200
     12 C12        -7.2014    1.2715   53.5287 C.ar    1  ZINC001211202056   -0.0800
     13 C13        -7.6960    2.0582   52.5062 C.ar    1  ZINC001211202056    0.0400
     14 C14        -6.8599    3.1918   51.9704 C.3     1  ZINC001211202056    0.5300
     15 F15        -7.3719    4.4084   52.4339 F       1  ZINC001211202056   -0.1700
     16 F16        -5.5393    3.0446   52.4080 F       1  ZINC001211202056   -0.1600
     17 F17        -6.8923    3.1747   50.5719 F       1  ZINC001211202056   -0.1700
     18 N18        -8.8895    1.8311   51.9919 N.ar    1  ZINC001211202056   -0.4100
     19 C19        -9.6560    0.8487   52.4235 C.ar    1  ZINC001211202056    0.1600
     20 Cl20      -11.2175    0.5984   51.7072 Cl      1  ZINC001211202056    0.0000
     21 C21       -10.1930   -0.9850   57.6645 C.ar    1  ZINC001211202056    0.0400
     22 C22        -9.4802   -0.5647   58.7709 C.ar    1  ZINC001211202056   -0.1400
     23 Cl23       -9.4196   -1.5571   60.1942 Cl      1  ZINC001211202056   -0.0500
     24 H24        -8.0663    0.5359   60.6614 H       1  ZINC001211202056    0.4100
     25 H25        -7.6422    1.9432   59.8474 H       1  ZINC001211202056    0.4100
     26 H26        -8.3588    2.3991   57.5837 H       1  ZINC001211202056    0.1400
     27 H27        -9.6224    1.6348   55.6146 H       1  ZINC001211202056    0.1500
     28 H28        -9.9696   -1.9057   53.5238 H       1  ZINC001211202056    0.4400
     29 H29        -7.6131   -0.4000   54.8162 H       1  ZINC001211202056    0.2000
     30 H30        -6.2231    1.4658   53.9427 H       1  ZINC001211202056    0.1700
     31 H31       -10.7091   -1.9336   57.6834 H       1  ZINC001211202056    0.1500
@<TRIPOS>BOND
     1     1     2    1
     2     1    24    1
     3     1    25    1
     4     2    22   ar
     5     2     3   ar
     6     3     4   ar
     7     3    26    1
     8     4     5   ar
     9     4    27    1
    10     5     6    1
    11     5    21   ar
    12     6     7    2
    13     6     8    2
    14     6     9   am
    15     9    10    1
    16     9    28    1
    17    10    19   ar
    18    10    11   ar
    19    11    12   ar
    20    11    29    1
    21    12    13   ar
    22    12    30    1
    23    13    14    1
    24    13    18   ar
    25    14    15    1
    26    14    16    1
    27    14    17    1
    28    18    19   ar
    29    19    20    1
    30    21    22   ar
    31    21    31    1
    32    22    23    1
@<TRIPOS>SUBSTRUCTURE
     1 ZINC001211202056        1 TEMP              0 ****  ****    0 ROOT


##########                                Name:    ZINC000820901229
##########                DOCK_Rotatable_Bonds:                   3
##########                         Heavy_Atoms:                  18
##########                    Molecular_Weight:             331.233
##########                DOCK_Rotatable_Bonds:                   3
##########                       Formal_Charge:           0.0099999
##########                     HBond_Acceptors:                   5
##########                        HBond_Donors:                   1
##########                         Heavy_Atoms:                  18
##########                          Grid_Score:          -22.226561
##########                     Grid_vdw_energy:          -21.798712
##########                      Grid_es_energy:           -0.427848
##########           Internal_energy_repulsive:           19.323711

@<TRIPOS>MOLECULE
ZINC000820901229
 33 35 1 0 0
SMALL
USER_CHARGES


@<TRIPOS>ATOM
      1 O1          2.3619    0.3888   49.6899 O.2     1  ZINC000820901229   -0.5300
      2 C2          1.4300   -0.0557   50.3329 C.2     1  ZINC000820901229    0.6000
      3 N3          1.2953    0.2660   51.6347 N.am    1  ZINC000820901229   -0.7100
      4 C4          2.2744    1.1463   52.2769 C.3     1  ZINC000820901229    0.1600
      5 H5          2.0155    1.2853   53.3266 H       1  ZINC000820901229    0.1000
      6 C6          2.3037    2.5062   51.5609 C.3     1  ZINC000820901229   -0.1300
      7 C7          3.3583    3.4312   52.1611 C.3     1  ZINC000820901229   -0.1100
      8 C8          4.7460    2.7688   52.1700 C.3     1  ZINC000820901229   -0.1100
      9 C9          4.6247    1.4769   52.9513 C.3     1  ZINC000820901229    0.0800
     10 H10         4.2080    1.6820   53.9375 H       1  ZINC000820901229    0.0700
     11 O11         5.7918    0.6731   53.0820 O.3     1  ZINC000820901229   -0.3700
     12 C12         5.3093   -0.6403   53.4638 C.3     1  ZINC000820901229    0.0500
     13 C13         3.8698   -0.7773   52.9039 C.3     1  ZINC000820901229   -0.1500
     14 C14         3.6638    0.5442   52.1627 C.3     1  ZINC000820901229   -0.1400
     15 H15         3.9670    0.4551   51.1196 H       1  ZINC000820901229    0.0900
     16 C16         0.4458   -0.9406   49.6874 C.2     1  ZINC000820901229    0.0100
     17 C17         0.4444   -1.2012   48.3611 C.2     1  ZINC000820901229   -0.2200
     18 S18        -0.8463   -2.2650   48.0085 S.3     1  ZINC000820901229    0.3100
     19 C19        -1.3103   -2.3012   49.6515 C.2     1  ZINC000820901229   -0.0100
     20 Br20       -2.7681   -3.2913   50.3375 Br      1  ZINC000820901229    0.0700
     21 N21        -0.5258   -1.5654   50.3591 N.2     1  ZINC000820901229   -0.4100
     22 H22         0.5498   -0.0853   52.1464 H       1  ZINC000820901229    0.4100
     23 H23         2.5272    2.3485   50.5058 H       1  ZINC000820901229    0.0700
     24 H24         1.3247    2.9769   51.6500 H       1  ZINC000820901229    0.0700
     25 H25         3.4046    4.3480   51.5734 H       1  ZINC000820901229    0.0800
     26 H26         3.0749    3.6787   53.1841 H       1  ZINC000820901229    0.0700
     27 H27         5.0616    2.5560   51.1485 H       1  ZINC000820901229    0.0700
     28 H28         5.4681    3.4275   52.6525 H       1  ZINC000820901229    0.0800
     29 H29         5.9497   -1.4105   53.0340 H       1  ZINC000820901229    0.0900
     30 H30         5.2951   -0.7293   54.5501 H       1  ZINC000820901229    0.0600
     31 H31         3.8035   -1.6179   52.2130 H       1  ZINC000820901229    0.0800
     32 H32         3.1496   -0.8863   53.7149 H       1  ZINC000820901229    0.0800
     33 H33         1.1440   -0.8019   47.6416 H       1  ZINC000820901229    0.2000
@<TRIPOS>BOND
     1     1     2    2
     2     2     3   am
     3     2    16    1
     4     3     4    1
     5     3    22    1
     6     4     5    1
     7     4    14    1
     8     4     6    1
     9     6     7    1
    10     6    23    1
    11     6    24    1
    12     7     8    1
    13     7    25    1
    14     7    26    1
    15     8     9    1
    16     8    27    1
    17     8    28    1
    18     9    10    1
    19     9    14    1
    20     9    11    1
    21    11    12    1
    22    12    13    1
    23    12    29    1
    24    12    30    1
    25    13    14    1
    26    13    31    1
    27    13    32    1
    28    14    15    1
    29    16    21    1
    30    16    17    2
    31    17    18    1
    32    17    33    1
    33    18    19    1
    34    19    20    1
    35    19    21    2
@<TRIPOS>SUBSTRUCTURE
     1 ZINC000820901229        1 TEMP              0 ****  ****    0 ROOT


##########                                Name:    ZINC000793092912
##########                DOCK_Rotatable_Bonds:                   4
##########                         Heavy_Atoms:                  26
##########                    Molecular_Weight:               407.2
##########                DOCK_Rotatable_Bonds:                   4
##########                       Formal_Charge:         2.90573e-07
##########                     HBond_Acceptors:                  10
##########                        HBond_Donors:                   1
##########                         Heavy_Atoms:                  26
##########                          Grid_Score:          -22.108841
##########                     Grid_vdw_energy:          -22.013624
##########                      Grid_es_energy:           -0.095216
##########           Internal_energy_repulsive:           11.060919

@<TRIPOS>MOLECULE
ZINC000793092912
 40 43 1 0 0
SMALL
USER_CHARGES


@<TRIPOS>ATOM
      1 C1         -9.6096    1.9054   62.8495 C.3     1  ZINC000793092912   -0.1300
      2 C2         -9.6443    1.1041   61.5466 C.3     1  ZINC000793092912   -0.0800
      3 C3         -9.4185   -0.3921   61.7002 C.3     1  ZINC000793092912   -0.1100
      4 C4        -10.4874   -1.2141   61.0048 C.3     1  ZINC000793092912    0.1100
      5 N5        -10.8409   -0.6617   59.7081 N.am    1  ZINC000793092912   -0.5700
      6 C6        -10.7429   -1.4485   58.6182 C.2     1  ZINC000793092912    0.5100
      7 O7        -10.3649   -2.5962   58.7304 O.2     1  ZINC000793092912   -0.5100
      8 C8        -11.0995   -0.9079   57.2726 C.2     1  ZINC000793092912    0.5100
      9 O9        -12.2624   -0.7084   56.9874 O.2     1  ZINC000793092912   -0.4900
     10 N10       -10.1302   -0.6417   56.3748 N.am    1  ZINC000793092912   -0.6400
     11 C11       -10.4641   -0.1355   55.1146 C.ar    1  ZINC000793092912    0.1600
     12 C12       -11.2114   -0.9051   54.2327 C.ar    1  ZINC000793092912   -0.1200
     13 C13       -11.5421   -0.4063   52.9872 C.ar    1  ZINC000793092912   -0.0600
     14 C14       -11.1287    0.8624   52.6143 C.ar    1  ZINC000793092912    0.0200
     15 O15       -11.3186    1.5733   51.4637 O.3     1  ZINC000793092912   -0.2800
     16 C16       -11.0291    2.9418   51.8052 C.3     1  ZINC000793092912    0.5700
     17 F17       -10.4393    3.6042   50.7234 F       1  ZINC000793092912   -0.1100
     18 F18       -12.1930    3.6041   52.2101 F       1  ZINC000793092912   -0.1500
     19 O19       -10.0994    2.8323   52.8991 O.3     1  ZINC000793092912   -0.2800
     20 C20       -10.3787    1.6372   53.4969 C.ar    1  ZINC000793092912    0.0500
     21 C21       -10.0531    1.1395   54.7468 C.ar    1  ZINC000793092912   -0.0900
     22 C22       -11.2975    0.7102   59.5441 C.3     1  ZINC000793092912    0.1100
     23 C23       -10.4932    1.6625   60.4166 C.3     1  ZINC000793092912   -0.1200
     24 H24       -10.9951    2.6032   60.6430 H       1  ZINC000793092912    0.1400
     25 C25        -8.9775    1.7477   60.3189 C.3     1  ZINC000793092912    0.0000
     26 Cl26       -8.2191    3.3714   60.5169 Cl      1  ZINC000793092912   -0.0800
     27 Cl27       -8.1529    0.6382   59.1613 Cl      1  ZINC000793092912   -0.0900
     28 H28       -10.6188    1.9862   63.2534 H       1  ZINC000793092912    0.0800
     29 H29        -8.9691    1.3980   63.5711 H       1  ZINC000793092912    0.0700
     30 H30        -9.2161    2.9025   62.6525 H       1  ZINC000793092912    0.0700
     31 H31        -8.4467   -0.6474   61.2780 H       1  ZINC000793092912    0.0900
     32 H32        -9.4164   -0.6415   62.7613 H       1  ZINC000793092912    0.1000
     33 H33       -10.1197   -2.2311   60.8685 H       1  ZINC000793092912    0.1100
     34 H34       -11.3778   -1.2419   61.6330 H       1  ZINC000793092912    0.0800
     35 H35        -9.2009   -0.8013   56.6027 H       1  ZINC000793092912    0.4300
     36 H36       -11.5343   -1.8948   54.5204 H       1  ZINC000793092912    0.1500
     37 H37       -12.1234   -1.0065   52.3030 H       1  ZINC000793092912    0.1500
     38 H38        -9.4767    1.7406   55.4343 H       1  ZINC000793092912    0.1600
     39 H39       -11.1694    1.0071   58.5032 H       1  ZINC000793092912    0.1400
     40 H40       -12.3547    0.7681   59.8032 H       1  ZINC000793092912    0.1000
@<TRIPOS>BOND
     1     1     2    1
     2     1    28    1
     3     1    29    1
     4     1    30    1
     5     2    23    1
     6     2    25    1
     7     2     3    1
     8     3     4    1
     9     3    31    1
    10     3    32    1
    11     4     5    1
    12     4    33    1
    13     4    34    1
    14     5     6   am
    15     5    22    1
    16     6     7    2
    17     6     8    1
    18     8     9    2
    19     8    10   am
    20    10    11    1
    21    10    35    1
    22    11    21   ar
    23    11    12   ar
    24    12    13   ar
    25    12    36    1
    26    13    14   ar
    27    13    37    1
    28    14    20   ar
    29    14    15    1
    30    15    16    1
    31    16    17    1
    32    16    18    1
    33    16    19    1
    34    19    20    1
    35    20    21   ar
    36    21    38    1
    37    22    23    1
    38    22    39    1
    39    22    40    1
    40    23    24    1
    41    23    25    1
    42    25    26    1
    43    25    27    1
@<TRIPOS>SUBSTRUCTURE
     1 ZINC000793092912        1 TEMP              0 ****  ****    0 ROOT


##########                                Name:    ZINC000431691749
##########                DOCK_Rotatable_Bonds:                   4
##########                         Heavy_Atoms:                  24
##########                    Molecular_Weight:             328.454
##########                DOCK_Rotatable_Bonds:                   4
##########                       Formal_Charge:         -0.00999957
##########                     HBond_Acceptors:                   4
##########                        HBond_Donors:                   0
##########                         Heavy_Atoms:                  24
##########                          Grid_Score:          -21.817524
##########                     Grid_vdw_energy:          -21.599560
##########                      Grid_es_energy:           -0.217965
##########           Internal_energy_repulsive:          129.200409

@<TRIPOS>MOLECULE
ZINC000431691749
 52 54 1 0 0
SMALL
USER_CHARGES


@<TRIPOS>ATOM
      1 C1         -8.4202   -1.0134   52.6536 C.3     1  ZINC000431691749   -0.1200
      2 C2         -8.6721   -0.0405   53.7765 C.ar    1  ZINC000431691749   -0.0800
      3 C3         -7.6483    0.7678   54.2333 C.ar    1  ZINC000431691749   -0.1200
      4 C4         -7.8793    1.6604   55.2635 C.ar    1  ZINC000431691749   -0.1100
      5 C5         -9.1343    1.7449   55.8363 C.ar    1  ZINC000431691749   -0.1100
      6 C6        -10.1588    0.9370   55.3788 C.ar    1  ZINC000431691749   -0.0800
      7 C7        -11.5271    1.0287   56.0036 C.3     1  ZINC000431691749    0.2000
      8 H8        -12.2648    0.5960   55.3279 H       1  ZINC000431691749    0.1100
      9 N9        -11.5355    0.2939   57.2709 N.am    1  ZINC000431691749   -0.5700
     10 C10       -12.6530   -0.1361   57.8894 C.2     1  ZINC000431691749    0.5200
     11 O11       -13.7976    0.0067   57.5161 O.2     1  ZINC000431691749   -0.4400
     12 C12       -12.1811   -0.8364   59.1482 C.3     1  ZINC000431691749    0.0900
     13 H13       -12.5734   -0.3377   60.0345 H       1  ZINC000431691749    0.1300
     14 C14       -12.5965   -2.3090   59.1329 C.3     1  ZINC000431691749   -0.1500
     15 N15       -10.7149   -0.7076   59.0872 N.am    1  ZINC000431691749   -0.6000
     16 C16        -9.7501   -1.2148   60.0660 C.3     1  ZINC000431691749    0.1500
     17 C17        -8.6287   -0.2169   60.3998 C.3     1  ZINC000431691749   -0.1600
     18 C18        -9.5479    0.3251   61.5071 C.3     1  ZINC000431691749   -0.1400
     19 C19       -10.2135   -1.0610   61.5243 C.3     1  ZINC000431691749   -0.1500
     20 C20       -10.4343   -0.0383   57.9545 C.2     1  ZINC000431691749    0.7000
     21 O21        -9.3069    0.2401   57.5959 O.2     1  ZINC000431691749   -0.5300
     22 C22       -11.8720    2.4966   56.2629 C.3     1  ZINC000431691749   -0.0700
     23 C23       -11.2653    3.3657   55.1595 C.3     1  ZINC000431691749   -0.1400
     24 C24       -13.3922    2.6696   56.2704 C.3     1  ZINC000431691749   -0.1400
     25 C25       -11.3036    2.9224   57.6181 C.3     1  ZINC000431691749   -0.1600
     26 C26        -9.9288    0.0477   54.3461 C.ar    1  ZINC000431691749   -0.1100
     27 H27        -8.6187   -0.5260   51.6992 H       1  ZINC000431691749    0.0700
     28 H28        -7.3816   -1.3429   52.6844 H       1  ZINC000431691749    0.0700
     29 H29        -9.0782   -1.8753   52.7652 H       1  ZINC000431691749    0.0700
     30 H30        -6.6675    0.7018   53.7857 H       1  ZINC000431691749    0.1200
     31 H31        -7.0790    2.2915   55.6209 H       1  ZINC000431691749    0.1200
     32 H32        -9.3147    2.4417   56.6415 H       1  ZINC000431691749    0.1100
     33 H33       -12.1752   -2.7962   58.2535 H       1  ZINC000431691749    0.0700
     34 H34       -12.2262   -2.8002   60.0328 H       1  ZINC000431691749    0.0800
     35 H35       -13.6837   -2.3795   59.1017 H       1  ZINC000431691749    0.0800
     36 H36        -9.3892   -2.2149   59.8256 H       1  ZINC000431691749    0.1000
     37 H37        -7.7219   -0.6894   60.7774 H       1  ZINC000431691749    0.0900
     38 H38        -8.4329    0.5019   59.6041 H       1  ZINC000431691749    0.0700
     39 H39        -9.0224    0.5686   62.4304 H       1  ZINC000431691749    0.0700
     40 H40       -10.2104    1.1235   61.1727 H       1  ZINC000431691749    0.0800
     41 H41       -11.2971   -1.0238   61.6365 H       1  ZINC000431691749    0.1000
     42 H42        -9.7399   -1.7644   62.2093 H       1  ZINC000431691749    0.0900
     43 H43       -11.6703    3.0623   54.1941 H       1  ZINC000431691749    0.0600
     44 H44       -11.5111    4.4114   55.3441 H       1  ZINC000431691749    0.0600
     45 H45       -10.1823    3.2424   55.1541 H       1  ZINC000431691749    0.0600
     46 H46       -13.8245    2.0505   57.0564 H       1  ZINC000431691749    0.0500
     47 H47       -13.6379    3.7153   56.4550 H       1  ZINC000431691749    0.0600
     48 H48       -13.7971    2.3663   55.3050 H       1  ZINC000431691749    0.0500
     49 H49       -10.4560    2.2862   57.8726 H       1  ZINC000431691749    0.0700
     50 H50       -10.9755    3.9605   57.5644 H       1  ZINC000431691749    0.0400
     51 H51       -12.0743    2.8239   58.3825 H       1  ZINC000431691749    0.1000
     52 H52       -10.7292   -0.5834   53.9886 H       1  ZINC000431691749    0.1300
@<TRIPOS>BOND
     1     1     2    1
     2     1    27    1
     3     1    28    1
     4     1    29    1
     5     2    26   ar
     6     2     3   ar
     7     3     4   ar
     8     3    30    1
     9     4     5   ar
    10     4    31    1
    11     5     6   ar
    12     5    32    1
    13     6     7    1
    14     6    26   ar
    15     7     8    1
    16     7     9    1
    17     7    22    1
    18     9    20   am
    19     9    10   am
    20    10    11    2
    21    10    12    1
    22    12    13    1
    23    12    14    1
    24    12    15    1
    25    14    33    1
    26    14    34    1
    27    14    35    1
    28    15    16    1
    29    15    20   am
    30    16    19    1
    31    16    17    1
    32    16    36    1
    33    17    18    1
    34    17    37    1
    35    17    38    1
    36    18    19    1
    37    18    39    1
    38    18    40    1
    39    19    41    1
    40    19    42    1
    41    20    21    2
    42    22    23    1
    43    22    24    1
    44    22    25    1
    45    23    43    1
    46    23    44    1
    47    23    45    1
    48    24    46    1
    49    24    47    1
    50    24    48    1
    51    25    49    1
    52    25    50    1
    53    25    51    1
    54    26    52    1
@<TRIPOS>SUBSTRUCTURE
     1 ZINC000431691749        1 TEMP              0 ****  ****    0 ROOT


##########                                Name:    ZINC001010141213
##########                DOCK_Rotatable_Bonds:                   4
##########                         Heavy_Atoms:                  24
##########                    Molecular_Weight:             330.346
##########                DOCK_Rotatable_Bonds:                   4
##########                       Formal_Charge:          -0.0100003
##########                     HBond_Acceptors:                   9
##########                        HBond_Donors:                   1
##########                         Heavy_Atoms:                  24
##########                          Grid_Score:          -21.519871
##########                     Grid_vdw_energy:          -21.026255
##########                      Grid_es_energy:           -0.493616
##########           Internal_energy_repulsive:           15.108890

@<TRIPOS>MOLECULE
ZINC001010141213
 42 44 1 0 0
SMALL
USER_CHARGES


@<TRIPOS>ATOM
      1 C1          2.0047    3.1205   57.3067 C.3     1  ZINC001010141213   -0.0800
      2 C2          0.8814    3.7882   56.5561 C.2     1  ZINC001010141213   -0.1500
      3 C3          0.9711    4.5076   55.3772 C.2     1  ZINC001010141213   -0.0400
      4 C4          2.1898    4.7777   54.5978 C.2     1  ZINC001010141213    0.6000
      5 O5          3.0134    5.5709   55.0123 O.2     1  ZINC001010141213   -0.5100
      6 N6          2.3933    4.1461   53.4247 N.am    1  ZINC001010141213   -0.6100
      7 C7          3.6086    4.4014   52.6389 C.3     1  ZINC001010141213    0.0900
      8 C8          4.3116    3.0639   52.3752 C.3     1  ZINC001010141213    0.0700
      9 N9          3.3225    2.1072   51.8593 N.am    1  ZINC001010141213   -0.6000
     10 C10         3.5265    1.4748   50.6868 C.2     1  ZINC001010141213    0.5900
     11 O11         4.5359    1.6937   50.0458 O.2     1  ZINC001010141213   -0.5200
     12 C12         2.5224    0.5146   50.1800 C.2     1  ZINC001010141213    0.0300
     13 N13         2.6304   -0.7617   50.4733 N.2     1  ZINC001010141213   -0.1800
     14 N14         1.7852   -1.6343   50.0578 N.am    1  ZINC001010141213   -0.4400
     15 C15         0.7317   -1.2932   49.2926 C.2     1  ZINC001010141213    0.4800
     16 O16        -0.0541   -2.1460   48.9141 O.2     1  ZINC001010141213   -0.5100
     17 C17         0.5419    0.0592   48.9312 C.2     1  ZINC001010141213   -0.1800
     18 C18         1.4448    0.9743   49.3851 C.2     1  ZINC001010141213   -0.0400
     19 C19         2.1071    1.8519   52.6452 C.3     1  ZINC001010141213    0.1000
     20 C20         1.4068    3.1851   52.9116 C.3     1  ZINC001010141213    0.1000
     21 N21        -0.2984    4.9167   55.0820 N.pl3   1  ZINC001010141213   -0.2700
     22 C22        -0.6784    5.7128   53.9124 C.3     1  ZINC001010141213    0.0900
     23 N23        -1.1081    4.4962   55.9861 N.2     1  ZINC001010141213   -0.2800
     24 C24        -0.4724    3.8073   56.8992 C.2     1  ZINC001010141213    0.0100
     25 H25         2.1259    2.0990   56.9462 H       1  ZINC001010141213    0.0700
     26 H26         2.9294    3.6747   57.1454 H       1  ZINC001010141213    0.0600
     27 H27         1.7716    3.1049   58.3713 H       1  ZINC001010141213    0.0700
     28 H28         3.3400    4.8666   51.6904 H       1  ZINC001010141213    0.0800
     29 H29         4.2736    5.0603   53.1971 H       1  ZINC001010141213    0.1000
     30 H30         5.1025    3.2054   51.6386 H       1  ZINC001010141213    0.1400
     31 H31         4.7373    2.6849   53.3043 H       1  ZINC001010141213    0.0800
     32 H32         1.9094   -2.5649   50.3019 H       1  ZINC001010141213    0.4500
     33 H33        -0.2950    0.3595   48.3182 H       1  ZINC001010141213    0.1700
     34 H34         1.3453    2.0208   49.1379 H       1  ZINC001010141213    0.1700
     35 H35         1.4422    1.1929   52.0870 H       1  ZINC001010141213    0.1100
     36 H36         2.3758    1.3866   53.5937 H       1  ZINC001010141213    0.0800
     37 H37         0.6163    3.0422   53.6484 H       1  ZINC001010141213    0.1100
     38 H38         0.9810    3.5664   51.9837 H       1  ZINC001010141213    0.0800
     39 H39        -1.0090    5.0496   53.1131 H       1  ZINC001010141213    0.0900
     40 H40        -1.4892    6.3898   54.1816 H       1  ZINC001010141213    0.1000
     41 H41         0.1803    6.2917   53.5724 H       1  ZINC001010141213    0.0900
     42 H42        -0.9149    3.3422   57.7676 H       1  ZINC001010141213    0.1900
@<TRIPOS>BOND
     1     1     2    1
     2     1    25    1
     3     1    26    1
     4     1    27    1
     5     2    24    1
     6     2     3    2
     7     3     4    1
     8     3    21    1
     9     4     5    2
    10     4     6   am
    11     6    20    1
    12     6     7    1
    13     7     8    1
    14     7    28    1
    15     7    29    1
    16     8     9    1
    17     8    30    1
    18     8    31    1
    19     9    10   am
    20     9    19    1
    21    10    11    2
    22    10    12    1
    23    12    18    1
    24    12    13    2
    25    13    14    1
    26    14    15   am
    27    14    32    1
    28    15    16    2
    29    15    17    1
    30    17    18    2
    31    17    33    1
    32    18    34    1
    33    19    20    1
    34    19    35    1
    35    19    36    1
    36    20    37    1
    37    20    38    1
    38    21    22    1
    39    21    23    1
    40    22    39    1
    41    22    40    1
    42    22    41    1
    43    23    24    2
    44    24    42    1
@<TRIPOS>SUBSTRUCTURE
     1 ZINC001010141213        1 TEMP              0 ****  ****    0 ROOT


##########                                Name:    ZINC000482962466
##########                DOCK_Rotatable_Bonds:                   2
##########                         Heavy_Atoms:                  25
##########                    Molecular_Weight:             404.303
##########                DOCK_Rotatable_Bonds:                   2
##########                       Formal_Charge:           0.0200002
##########                     HBond_Acceptors:                   4
##########                        HBond_Donors:                   0
##########                         Heavy_Atoms:                  25
##########                          Grid_Score:          -21.421951
##########                     Grid_vdw_energy:          -22.493784
##########                      Grid_es_energy:            1.071833
##########           Internal_energy_repulsive:            7.174518

@<TRIPOS>MOLECULE
ZINC000482962466
 47 50 1 0 0
SMALL
USER_CHARGES


@<TRIPOS>ATOM
      1 C1        -10.9790    4.6125   60.1833 C.3     1  ZINC000482962466   -0.1400
      2 C2        -10.2090    3.3329   60.5159 C.3     1  ZINC000482962466    0.0700
      3 H3         -9.1803    3.5840   60.7745 H       1  ZINC000482962466    0.0700
      4 C4        -10.2182    2.3989   59.3005 C.3     1  ZINC000482962466    0.0800
      5 N5         -9.6383    1.1075   59.7019 N.am    1  ZINC000482962466   -0.6100
      6 C6         -8.6555    0.5337   58.9798 C.2     1  ZINC000482962466    0.5600
      7 O7         -8.1894   -0.5336   59.3281 O.2     1  ZINC000482962466   -0.5200
      8 C8         -8.1445    1.2020   57.7651 C.ar    1  ZINC000482962466   -0.1100
      9 C9         -7.3343    2.3450   57.8860 C.ar    1  ZINC000482962466   -0.0700
     10 C10        -6.8528    2.9764   56.7851 C.ar    1  ZINC000482962466   -0.1000
     11 C11        -7.1624    2.4890   55.5022 C.ar    1  ZINC000482962466   -0.0400
     12 C12        -6.6756    3.1254   54.3486 C.ar    1  ZINC000482962466   -0.0700
     13 C13        -6.9920    2.6300   53.1196 C.ar    1  ZINC000482962466   -0.0800
     14 Br14       -6.3330    3.4912   51.5705 Br      1  ZINC000482962466   -0.0400
     15 C15        -7.7944    1.4970   52.9868 C.ar    1  ZINC000482962466   -0.1000
     16 C16        -8.2843    0.8544   54.0814 C.ar    1  ZINC000482962466   -0.0900
     17 C17        -7.9783    1.3366   55.3671 C.ar    1  ZINC000482962466   -0.0500
     18 C18        -8.4625    0.6944   56.5160 C.ar    1  ZINC000482962466   -0.0700
     19 C19       -10.1637    0.4609   60.9151 C.3     1  ZINC000482962466    0.0700
     20 C20       -10.1597    1.4891   62.0506 C.3     1  ZINC000482962466    0.0800
     21 C21       -10.8777    0.9055   63.2701 C.3     1  ZINC000482962466   -0.1100
     22 C22       -10.7978    1.9095   64.4245 C.3     1  ZINC000482962466   -0.1500
     23 C23        -9.3284    2.2302   64.7105 C.3     1  ZINC000482962466    0.0600
     24 O24        -8.7136    2.7413   63.5261 O.3     1  ZINC000482962466   -0.3700
     25 C25        -8.7158    1.8277   62.4271 C.3     1  ZINC000482962466    0.0400
     26 O26       -10.8321    2.6744   61.6215 O.3     1  ZINC000482962466   -0.3500
     27 H27       -10.9736    5.2752   61.0485 H       1  ZINC000482962466    0.0700
     28 H28       -10.5045    5.1131   59.3392 H       1  ZINC000482962466    0.0800
     29 H29       -12.0076    4.3608   59.9249 H       1  ZINC000482962466    0.0700
     30 H30       -11.2428    2.2509   58.9592 H       1  ZINC000482962466    0.0800
     31 H31        -9.6231    2.8350   58.4980 H       1  ZINC000482962466    0.1000
     32 H32        -7.0925    2.7256   58.8674 H       1  ZINC000482962466    0.1400
     33 H33        -6.2321    3.8535   56.8941 H       1  ZINC000482962466    0.1400
     34 H34        -6.0535    4.0040   54.4355 H       1  ZINC000482962466    0.1400
     35 H35        -8.0304    1.1246   52.0009 H       1  ZINC000482962466    0.1400
     36 H36        -8.9050   -0.0215   53.9638 H       1  ZINC000482962466    0.1400
     37 H37        -9.0816   -0.1861   56.4275 H       1  ZINC000482962466    0.1400
     38 H38       -11.1821    0.1159   60.7356 H       1  ZINC000482962466    0.0900
     39 H39        -9.5309   -0.3851   61.1836 H       1  ZINC000482962466    0.1000
     40 H40       -11.9222    0.7168   63.0225 H       1  ZINC000482962466    0.0800
     41 H41       -10.3970   -0.0274   63.5643 H       1  ZINC000482962466    0.0800
     42 H42       -11.3233    2.8239   64.1490 H       1  ZINC000482962466    0.0800
     43 H43       -11.2564    1.4786   65.3145 H       1  ZINC000482962466    0.0800
     44 H44        -9.2668    2.9762   65.5028 H       1  ZINC000482962466    0.1000
     45 H45        -8.8130    1.3227   65.0249 H       1  ZINC000482962466    0.0500
     46 H46        -8.1909    0.9157   62.7112 H       1  ZINC000482962466    0.0600
     47 H47        -8.2152    2.2846   61.5735 H       1  ZINC000482962466    0.1000
@<TRIPOS>BOND
     1     1     2    1
     2     1    27    1
     3     1    28    1
     4     1    29    1
     5     2     3    1
     6     2    26    1
     7     2     4    1
     8     4     5    1
     9     4    30    1
    10     4    31    1
    11     5     6   am
    12     5    19    1
    13     6     7    2
    14     6     8    1
    15     8    18   ar
    16     8     9   ar
    17     9    10   ar
    18     9    32    1
    19    10    11   ar
    20    10    33    1
    21    11    17   ar
    22    11    12   ar
    23    12    13   ar
    24    12    34    1
    25    13    14    1
    26    13    15   ar
    27    15    16   ar
    28    15    35    1
    29    16    17   ar
    30    16    36    1
    31    17    18   ar
    32    18    37    1
    33    19    20    1
    34    19    38    1
    35    19    39    1
    36    20    25    1
    37    20    21    1
    38    20    26    1
    39    21    22    1
    40    21    40    1
    41    21    41    1
    42    22    23    1
    43    22    42    1
    44    22    43    1
    45    23    24    1
    46    23    44    1
    47    23    45    1
    48    24    25    1
    49    25    46    1
    50    25    47    1
@<TRIPOS>SUBSTRUCTURE
     1 ZINC000482962466        1 TEMP              0 ****  ****    0 ROOT


##########                                Name:    ZINC000541315701
##########                DOCK_Rotatable_Bonds:                   4
##########                         Heavy_Atoms:                  25
##########                    Molecular_Weight:             422.709
##########                DOCK_Rotatable_Bonds:                   4
##########                       Formal_Charge:           0.0300003
##########                     HBond_Acceptors:                   6
##########                        HBond_Donors:                   0
##########                         Heavy_Atoms:                  25
##########                          Grid_Score:          -20.760963
##########                     Grid_vdw_energy:          -20.284023
##########                      Grid_es_energy:           -0.476941
##########           Internal_energy_repulsive:           19.520248

@<TRIPOS>MOLECULE
ZINC000541315701
 42 44 1 0 0
SMALL
USER_CHARGES


@<TRIPOS>ATOM
      1 C1         -9.2975    2.3784   55.6699 C.3     1  ZINC000541315701    0.0800
      2 N2         -9.7734    1.0003   55.8132 N.am    1  ZINC000541315701   -0.5700
      3 C3        -10.1972    0.5549   57.0125 C.2     1  ZINC000541315701    0.5400
      4 O4        -10.5911   -0.5859   57.1311 O.2     1  ZINC000541315701   -0.5000
      5 C5        -10.1816    1.4746   58.2063 C.3     1  ZINC000541315701   -0.1100
      6 H6        -10.1547    2.5180   57.8919 H       1  ZINC000541315701    0.1300
      7 C7        -11.3936    1.2055   59.1280 C.3     1  ZINC000541315701   -0.1500
      8 C8        -10.8712    0.2189   60.1490 C.2     1  ZINC000541315701    0.5200
      9 O9        -11.5643   -0.4591   60.8776 O.2     1  ZINC000541315701   -0.5200
     10 N10        -9.5272    0.2030   60.1310 N.am    1  ZINC000541315701   -0.6100
     11 C11        -8.6991   -0.6479   60.9892 C.3     1  ZINC000541315701    0.0900
     12 C12        -8.9955    1.1479   59.1405 C.3     1  ZINC000541315701    0.1900
     13 H13        -8.1859    0.6861   58.5753 H       1  ZINC000541315701    0.1100
     14 C14        -8.5063    2.3990   59.8234 C.ar    1  ZINC000541315701   -0.0900
     15 C15        -9.1259    2.8444   60.9759 C.ar    1  ZINC000541315701   -0.1000
     16 C16        -8.6774    3.9919   61.6033 C.ar    1  ZINC000541315701   -0.1000
     17 C17        -7.6096    4.6945   61.0781 C.ar    1  ZINC000541315701   -0.1000
     18 C18        -6.9889    4.2491   59.9244 C.ar    1  ZINC000541315701   -0.0300
     19 Cl19       -5.6469    5.1308   59.2645 Cl      1  ZINC000541315701   -0.0600
     20 C20        -7.4344    3.0978   59.3003 C.ar    1  ZINC000541315701   -0.0900
     21 C21        -9.7878    0.1494   54.7086 C.ar    1  ZINC000541315701    0.3800
     22 N22        -8.6515   -0.3538   54.2538 N.ar    1  ZINC000541315701   -0.4700
     23 C23        -8.6206   -1.1629   53.2120 C.ar    1  ZINC000541315701    0.1300
     24 C24        -9.7822   -1.5157   52.5543 C.ar    1  ZINC000541315701   -0.1600
     25 C25       -10.9960   -1.0097   52.9994 C.ar    1  ZINC000541315701   -0.0400
     26 C26       -10.9970   -0.1675   54.0981 C.ar    1  ZINC000541315701   -0.1300
     27 Br27      -12.6185    0.5531   54.7518 Br      1  ZINC000541315701   -0.0200
     28 H28        -8.7958    2.6867   56.5871 H       1  ZINC000541315701    0.0900
     29 H29        -8.5980    2.4365   54.8359 H       1  ZINC000541315701    0.0800
     30 H30       -10.1447    3.0374   55.4800 H       1  ZINC000541315701    0.0700
     31 H31       -11.7136    2.1261   59.6160 H       1  ZINC000541315701    0.1200
     32 H32       -12.2149    0.7681   58.5603 H       1  ZINC000541315701    0.1100
     33 H33        -9.3412   -1.2517   61.6304 H       1  ZINC000541315701    0.0900
     34 H34        -8.0862   -1.3023   60.3692 H       1  ZINC000541315701    0.0700
     35 H35        -8.0537   -0.0228   61.6063 H       1  ZINC000541315701    0.0600
     36 H36        -9.9610    2.2960   61.3862 H       1  ZINC000541315701    0.1300
     37 H37        -9.1619    4.3395   62.5038 H       1  ZINC000541315701    0.1400
     38 H38        -7.2597    5.5913   61.5680 H       1  ZINC000541315701    0.1400
     39 H39        -6.9504    2.7497   58.3999 H       1  ZINC000541315701    0.1400
     40 H40        -7.6741   -1.5540   52.8689 H       1  ZINC000541315701    0.1700
     41 H41        -9.7469   -2.1784   51.7022 H       1  ZINC000541315701    0.1500
     42 H42       -11.9186   -1.2704   52.5025 H       1  ZINC000541315701    0.1500
@<TRIPOS>BOND
     1     1     2    1
     2     1    28    1
     3     1    29    1
     4     1    30    1
     5     2     3   am
     6     2    21    1
     7     3     4    2
     8     3     5    1
     9     5     6    1
    10     5    12    1
    11     5     7    1
    12     7     8    1
    13     7    31    1
    14     7    32    1
    15     8     9    2
    16     8    10   am
    17    10    11    1
    18    10    12    1
    19    11    33    1
    20    11    34    1
    21    11    35    1
    22    12    13    1
    23    12    14    1
    24    14    20   ar
    25    14    15   ar
    26    15    16   ar
    27    15    36    1
    28    16    17   ar
    29    16    37    1
    30    17    18   ar
    31    17    38    1
    32    18    19    1
    33    18    20   ar
    34    20    39    1
    35    21    26   ar
    36    21    22   ar
    37    22    23   ar
    38    23    24   ar
    39    23    40    1
    40    24    25   ar
    41    24    41    1
    42    25    26   ar
    43    25    42    1
    44    26    27    1
@<TRIPOS>SUBSTRUCTURE
     1 ZINC000541315701        1 TEMP              0 ****  ****    0 ROOT


##########                                Name:    ZINC000569288350
##########                DOCK_Rotatable_Bonds:                   3
##########                         Heavy_Atoms:                  19
##########                    Molecular_Weight:             393.559
##########                DOCK_Rotatable_Bonds:                   3
##########                       Formal_Charge:           0.0299999
##########                     HBond_Acceptors:                   5
##########                        HBond_Donors:                   1
##########                         Heavy_Atoms:                  19
##########                          Grid_Score:          -18.177210
##########                     Grid_vdw_energy:          -17.580584
##########                      Grid_es_energy:           -0.596627
##########           Internal_energy_repulsive:            4.222515

@<TRIPOS>MOLECULE
ZINC000569288350
 26 27 1 0 0
SMALL
USER_CHARGES


@<TRIPOS>ATOM
      1 O1        -11.2250    1.2082   59.7818 O.2     1  ZINC000569288350   -0.4800
      2 C2        -10.3089    0.4318   59.5910 C.2     1  ZINC000569288350    0.5700
      3 N3         -9.2203    0.4660   60.3848 N.am    1  ZINC000569288350   -0.6600
      4 C4         -9.1418    1.3986   61.4247 C.ar    1  ZINC000569288350    0.1800
      5 C5         -9.0408    2.7534   61.1379 C.ar    1  ZINC000569288350   -0.1200
      6 C6         -8.9634    3.6731   62.1659 C.ar    1  ZINC000569288350   -0.0600
      7 C7         -8.9858    3.2470   63.4807 C.ar    1  ZINC000569288350   -0.1500
      8 C8         -9.0864    1.8966   63.7724 C.ar    1  ZINC000569288350    0.1300
      9 F9         -9.1085    1.4832   65.0584 F       1  ZINC000569288350   -0.1200
     10 C10        -9.1705    0.9713   62.7466 C.ar    1  ZINC000569288350   -0.1000
     11 Cl11       -9.2972   -0.7213   63.1108 Cl      1  ZINC000569288350   -0.0400
     12 C12       -10.3918   -0.5523   58.4938 C.ar    1  ZINC000569288350   -0.1400
     13 C13       -10.8755   -1.8411   58.7406 C.ar    1  ZINC000569288350    0.1400
     14 F14       -11.2696   -2.1904   59.9848 F       1  ZINC000569288350   -0.1200
     15 C15       -10.9496   -2.7568   57.7067 C.ar    1  ZINC000569288350   -0.1300
     16 C16       -10.5466   -2.4001   56.4335 C.ar    1  ZINC000569288350   -0.0600
     17 C17       -10.0664   -1.1262   56.1830 C.ar    1  ZINC000569288350   -0.0900
     18 C18        -9.9926   -0.1994   57.2020 C.ar    1  ZINC000569288350   -0.0500
     19 I19        -9.2652    1.7275   56.8178 I       1  ZINC000569288350    0.0000
     20 H20        -8.4912   -0.1561   60.2352 H       1  ZINC000569288350    0.4200
     21 H21        -9.0225    3.0882   60.1111 H       1  ZINC000569288350    0.1600
     22 H22        -8.8849    4.7267   61.9419 H       1  ZINC000569288350    0.1500
     23 H23        -8.9244    3.9684   64.2821 H       1  ZINC000569288350    0.1500
     24 H24       -11.3229   -3.7527   57.8947 H       1  ZINC000569288350    0.1500
     25 H25       -10.6064   -3.1192   55.6300 H       1  ZINC000569288350    0.1500
     26 H26        -9.7533   -0.8555   55.1855 H       1  ZINC000569288350    0.1500
@<TRIPOS>BOND
     1     1     2    2
     2     2     3   am
     3     2    12    1
     4     3     4    1
     5     3    20    1
     6     4    10   ar
     7     4     5   ar
     8     5     6   ar
     9     5    21    1
    10     6     7   ar
    11     6    22    1
    12     7     8   ar
    13     7    23    1
    14     8     9    1
    15     8    10   ar
    16    10    11    1
    17    12    18   ar
    18    12    13   ar
    19    13    14    1
    20    13    15   ar
    21    15    16   ar
    22    15    24    1
    23    16    17   ar
    24    16    25    1
    25    17    18   ar
    26    17    26    1
    27    18    19    1
@<TRIPOS>SUBSTRUCTURE
     1 ZINC000569288350        1 TEMP              0 ****  ****    0 ROOT

