
##########                                Name:    ZINC001591898574
##########                DOCK_Rotatable_Bonds:                  10
##########                         Heavy_Atoms:                  26
##########                    Molecular_Weight:             383.434
##########                DOCK_Rotatable_Bonds:                  10
##########                       Formal_Charge:         5.96046e-08
##########                     HBond_Acceptors:                  13
##########                        HBond_Donors:                   3
##########                         Heavy_Atoms:                  26
##########                          Grid_Score:          -36.896431
##########                     Grid_vdw_energy:          -35.624931
##########                      Grid_es_energy:           -1.271501
##########           Internal_energy_repulsive:           11.023401

@<TRIPOS>MOLECULE
ZINC001591898574
 47 48 1 0 0
SMALL
USER_CHARGES


@<TRIPOS>ATOM
      1 C1         -4.8221    3.4670   57.4480 C.3     1  ZINC001591898574   -0.1100
      2 C2         -5.8068    2.5691   56.7442 C.ar    1  ZINC001591898574    0.2300
      3 C3         -5.8716    2.5497   55.3623 C.ar    1  ZINC001591898574   -0.2400
      4 C4         -6.7989    1.7021   54.7513 C.ar    1  ZINC001591898574    0.3000
      5 C5         -6.9068    1.6448   53.2723 C.2     1  ZINC001591898574    0.2100
      6 N6         -7.3224    0.6217   52.5521 N.2     1  ZINC001591898574   -0.2500
      7 N7         -7.2706    0.9660   51.3114 N.pl3   1  ZINC001591898574   -0.2200
      8 N8         -6.8356    2.1743   51.2223 N.2     1  ZINC001591898574   -0.0400
      9 N9         -6.6061    2.6253   52.4088 N.2     1  ZINC001591898574   -0.2500
     10 N10        -7.5835    0.9466   55.5156 N.ar    1  ZINC001591898574   -0.5500
     11 C11        -7.4887    0.9956   56.8351 C.ar    1  ZINC001591898574    0.5800
     12 N12        -8.3200    0.1966   57.6010 N.pl3   1  ZINC001591898574   -0.7000
     13 C13        -7.8378   -0.3599   58.8675 C.3     1  ZINC001591898574    0.1400
     14 C14        -9.0202   -0.5680   59.8160 C.3     1  ZINC001591898574   -0.1500
     15 C15        -9.5285   -2.0056   59.6897 C.3     1  ZINC001591898574    0.1200
     16 N16       -10.6704   -2.0409   58.7727 N.am    1  ZINC001591898574   -0.7300
     17 C17       -10.9730   -3.1788   58.1168 C.2     1  ZINC001591898574    0.4900
     18 O18       -10.3008   -4.1739   58.2869 O.2     1  ZINC001591898574   -0.5300
     19 C19       -12.1466   -3.2147   57.1721 C.3     1  ZINC001591898574    0.1000
     20 N20       -13.0522   -2.1039   57.4760 N.am    1  ZINC001591898574   -0.9800
     21 C21       -12.9944   -0.8736   56.6829 C.3     1  ZINC001591898574    0.1000
     22 S22       -14.1413   -2.2392   58.7163 S.o2    1  ZINC001591898574    2.6100
     23 C23       -15.1726   -3.6600   58.2599 C.3     1  ZINC001591898574   -0.6600
     24 O24       -13.3434   -2.5462   59.8514 O.2     1  ZINC001591898574   -0.9500
     25 O25       -14.8945   -1.0358   58.6540 O.2     1  ZINC001591898574   -0.9600
     26 N26        -6.6152    1.7864   57.4413 N.ar    1  ZINC001591898574   -0.5600
     27 H27        -3.8822    2.9339   57.5910 H       1  ZINC001591898574    0.0900
     28 H28        -4.6466    4.3575   56.8445 H       1  ZINC001591898574    0.0900
     29 H29        -5.2254    3.7589   58.4178 H       1  ZINC001591898574    0.0900
     30 H30        -5.2209    3.1757   54.7697 H       1  ZINC001591898574    0.1600
     31 H31        -7.5202    0.4029   50.5620 H       1  ZINC001591898574    0.4800
     32 H32        -9.2217    0.0052   57.2991 H       1  ZINC001591898574    0.4200
     33 H33        -7.3487   -1.3161   58.6813 H       1  ZINC001591898574    0.0700
     34 H34        -7.1260    0.3303   59.3201 H       1  ZINC001591898574    0.0700
     35 H35        -8.7000   -0.3847   60.8416 H       1  ZINC001591898574    0.0800
     36 H36        -9.8208    0.1245   59.5560 H       1  ZINC001591898574    0.0800
     37 H37        -8.7314   -2.6401   59.3020 H       1  ZINC001591898574    0.0700
     38 H38        -9.8380   -2.3690   60.6696 H       1  ZINC001591898574    0.0700
     39 H39       -11.2087   -1.2455   58.6375 H       1  ZINC001591898574    0.4000
     40 H40       -11.7902   -3.1225   56.1462 H       1  ZINC001591898574    0.1200
     41 H41       -12.6781   -4.1591   57.2885 H       1  ZINC001591898574    0.1300
     42 H42       -13.6739   -0.9559   55.8346 H       1  ZINC001591898574    0.0600
     43 H43       -13.2887   -0.0272   57.3034 H       1  ZINC001591898574    0.0700
     44 H44       -11.9776   -0.7223   56.3205 H       1  ZINC001591898574    0.0700
     45 H45       -14.5475   -4.5483   58.1687 H       1  ZINC001591898574    0.1300
     46 H46       -15.9266   -3.8238   59.0300 H       1  ZINC001591898574    0.1200
     47 H47       -15.6635   -3.4617   57.3072 H       1  ZINC001591898574    0.1300
@<TRIPOS>BOND
     1     1     2    1
     2     1    27    1
     3     1    28    1
     4     1    29    1
     5     2    26   ar
     6     2     3   ar
     7     3     4   ar
     8     3    30    1
     9     4     5    1
    10     4    10   ar
    11     5     9    1
    12     5     6    2
    13     6     7    1
    14     7     8    1
    15     7    31    1
    16     8     9    2
    17    10    11   ar
    18    11    12    1
    19    11    26   ar
    20    12    13    1
    21    12    32    1
    22    13    14    1
    23    13    33    1
    24    13    34    1
    25    14    15    1
    26    14    35    1
    27    14    36    1
    28    15    16    1
    29    15    37    1
    30    15    38    1
    31    16    17   am
    32    16    39    1
    33    17    18    2
    34    17    19    1
    35    19    20    1
    36    19    40    1
    37    19    41    1
    38    20    21    1
    39    20    22   am
    40    21    42    1
    41    21    43    1
    42    21    44    1
    43    22    23    1
    44    22    24    2
    45    22    25    2
    46    23    45    1
    47    23    46    1
    48    23    47    1
@<TRIPOS>SUBSTRUCTURE
     1 ZINC001591898574        1 TEMP              0 ****  ****    0 ROOT


##########                                Name:    ZINC000428266315
##########                DOCK_Rotatable_Bonds:                  10
##########                         Heavy_Atoms:                  30
##########                    Molecular_Weight:             423.438
##########                DOCK_Rotatable_Bonds:                  10
##########                       Formal_Charge:          0.00999977
##########                     HBond_Acceptors:                  10
##########                        HBond_Donors:                   0
##########                         Heavy_Atoms:                  30
##########                          Grid_Score:          -36.808899
##########                     Grid_vdw_energy:          -36.301098
##########                      Grid_es_energy:           -0.507800
##########           Internal_energy_repulsive:           10.939485

@<TRIPOS>MOLECULE
ZINC000428266315
 54 56 1 0 0
SMALL
USER_CHARGES


@<TRIPOS>ATOM
      1 C1         -7.1432    1.0184   52.5141 C.3     1  ZINC000428266315   -0.1500
      2 C2         -8.5642    1.1742   53.0597 C.3     1  ZINC000428266315    0.0600
      3 O3         -8.9064    0.0223   53.8331 O.3     1  ZINC000428266315   -0.3700
      4 C4        -10.2211    0.0666   54.3912 C.3     1  ZINC000428266315    0.1800
      5 H5        -10.3082    0.9323   55.0478 H       1  ZINC000428266315    0.0900
      6 C6        -11.2502    0.1758   53.2642 C.3     1  ZINC000428266315   -0.1700
      7 C7        -10.4738   -1.1911   55.1820 C.2     1  ZINC000428266315    0.1700
      8 N8        -10.0521   -2.3838   54.8854 N.2     1  ZINC000428266315   -0.3500
      9 O9        -10.4231   -3.1804   55.7215 O.3     1  ZINC000428266315    0.0800
     10 C10       -11.1385   -2.5524   56.6595 C.2     1  ZINC000428266315    0.1900
     11 C11       -11.7791   -3.1807   57.8703 C.3     1  ZINC000428266315    0.1500
     12 N12       -13.0204   -2.4650   58.1944 N.3     1  ZINC000428266315   -0.5300
     13 C13       -14.1535   -3.0035   57.4301 C.3     1  ZINC000428266315    0.0200
     14 C14       -13.2910   -2.5075   59.6376 C.3     1  ZINC000428266315    0.1400
     15 C15       -12.9173   -1.1858   60.2578 C.2     1  ZINC000428266315   -0.2300
     16 C16       -11.6763   -0.6479   60.2981 C.2     1  ZINC000428266315    0.0800
     17 N17       -11.7625    0.5378   60.9368 N.pl3   1  ZINC000428266315   -0.3700
     18 C18       -10.6527    1.4566   61.2019 C.3     1  ZINC000428266315    0.1700
     19 C19        -9.9417    1.0351   62.4620 C.ar    1  ZINC000428266315   -0.0800
     20 C20       -10.3173    1.5707   63.6797 C.ar    1  ZINC000428266315   -0.1000
     21 C21        -9.6650    1.1841   64.8356 C.ar    1  ZINC000428266315   -0.0700
     22 C22        -8.6376    0.2614   64.7738 C.ar    1  ZINC000428266315   -0.1700
     23 C23        -7.9262   -0.1597   66.0338 C.3     1  ZINC000428266315    0.5100
     24 F24        -6.5537   -0.2615   65.7826 F       1  ZINC000428266315   -0.1700
     25 F25        -8.1476    0.7923   67.0347 F       1  ZINC000428266315   -0.1800
     26 F26        -8.4167   -1.4007   66.4536 F       1  ZINC000428266315   -0.1800
     27 C27        -8.2629   -0.2752   63.5561 C.ar    1  ZINC000428266315   -0.0700
     28 C28        -8.9177    0.1086   62.4008 C.ar    1  ZINC000428266315   -0.0800
     29 N29       -13.1008    0.7350   61.3010 N.2     1  ZINC000428266315   -0.2900
     30 C30       -13.7929   -0.2957   60.8883 C.2     1  ZINC000428266315    0.0600
     31 N31       -11.1724   -1.2843   56.3276 N.2     1  ZINC000428266315   -0.4600
     32 H32        -6.8822    1.8970   51.9241 H       1  ZINC000428266315    0.0700
     33 H33        -6.4443    0.9174   53.3443 H       1  ZINC000428266315    0.0600
     34 H34        -7.0910    0.1297   51.8851 H       1  ZINC000428266315    0.0600
     35 H35        -8.6164    2.0629   53.6888 H       1  ZINC000428266315    0.0500
     36 H36        -9.2631    1.2752   52.2294 H       1  ZINC000428266315    0.0500
     37 H37       -11.1631   -0.6898   52.6077 H       1  ZINC000428266315    0.0700
     38 H38       -12.2530    0.2096   53.6900 H       1  ZINC000428266315    0.0700
     39 H39       -11.0674    1.0856   52.6923 H       1  ZINC000428266315    0.0700
     40 H40       -12.0066   -4.2257   57.6600 H       1  ZINC000428266315    0.0800
     41 H41       -11.0940   -3.1210   58.7159 H       1  ZINC000428266315    0.1200
     42 H42       -14.2853   -4.0585   57.6706 H       1  ZINC000428266315    0.0400
     43 H43       -15.0596   -2.4559   57.6893 H       1  ZINC000428266315    0.0800
     44 H44       -13.9563   -2.8959   56.3636 H       1  ZINC000428266315    0.0600
     45 H45       -14.3512   -2.6996   59.8029 H       1  ZINC000428266315    0.0500
     46 H46       -12.7020   -3.3027   60.0944 H       1  ZINC000428266315    0.0900
     47 H47       -10.7778   -1.0885   59.8920 H       1  ZINC000428266315    0.1700
     48 H48        -9.9542    1.4337   60.3655 H       1  ZINC000428266315    0.1000
     49 H49       -11.0399    2.4682   61.3243 H       1  ZINC000428266315    0.1100
     50 H50       -11.1201    2.2916   63.7280 H       1  ZINC000428266315    0.1300
     51 H51        -9.9581    1.6031   65.7870 H       1  ZINC000428266315    0.1400
     52 H52        -7.4603   -0.9963   63.5079 H       1  ZINC000428266315    0.1400
     53 H53        -8.6250   -0.3107   61.4495 H       1  ZINC000428266315    0.1400
     54 H54       -14.8554   -0.4383   61.0188 H       1  ZINC000428266315    0.1800
@<TRIPOS>BOND
     1     1     2    1
     2     1    32    1
     3     1    33    1
     4     1    34    1
     5     2     3    1
     6     2    35    1
     7     2    36    1
     8     3     4    1
     9     4     5    1
    10     4     6    1
    11     4     7    1
    12     6    37    1
    13     6    38    1
    14     6    39    1
    15     7    31    1
    16     7     8    2
    17     8     9    1
    18     9    10    1
    19    10    11    1
    20    10    31    2
    21    11    12    1
    22    11    40    1
    23    11    41    1
    24    12    13    1
    25    12    14    1
    26    13    42    1
    27    13    43    1
    28    13    44    1
    29    14    15    1
    30    14    45    1
    31    14    46    1
    32    15    30    1
    33    15    16    2
    34    16    17    1
    35    16    47    1
    36    17    18    1
    37    17    29    1
    38    18    19    1
    39    18    48    1
    40    18    49    1
    41    19    28   ar
    42    19    20   ar
    43    20    21   ar
    44    20    50    1
    45    21    22   ar
    46    21    51    1
    47    22    23    1
    48    22    27   ar
    49    23    24    1
    50    23    25    1
    51    23    26    1
    52    27    28   ar
    53    27    52    1
    54    28    53    1
    55    29    30    2
    56    30    54    1
@<TRIPOS>SUBSTRUCTURE
     1 ZINC000428266315        1 TEMP              0 ****  ****    0 ROOT


##########                                Name:    ZINC000770814339
##########                DOCK_Rotatable_Bonds:                  13
##########                         Heavy_Atoms:                  28
##########                    Molecular_Weight:             409.423
##########                DOCK_Rotatable_Bonds:                  13
##########                       Formal_Charge:          -0.0100008
##########                     HBond_Acceptors:                  12
##########                        HBond_Donors:                   4
##########                         Heavy_Atoms:                  28
##########                          Grid_Score:          -36.651974
##########                     Grid_vdw_energy:          -34.843796
##########                      Grid_es_energy:           -1.808179
##########           Internal_energy_repulsive:            8.309316

@<TRIPOS>MOLECULE
ZINC000770814339
 47 48 1 0 0
SMALL
USER_CHARGES


@<TRIPOS>ATOM
      1 C1        -10.4435    1.3946   61.0416 C.3     1  ZINC000770814339   -0.1500
      2 C2         -9.9867    0.0534   61.6191 C.3     1  ZINC000770814339    0.0600
      3 O3         -8.6209   -0.2123   61.2040 O.3     1  ZINC000770814339   -0.3500
      4 C4         -8.4488   -0.7676   59.9942 C.2     1  ZINC000770814339    0.4700
      5 O5         -7.6616   -0.2856   59.2147 O.2     1  ZINC000770814339   -0.4800
      6 C6         -9.2376   -1.9923   59.6082 C.3     1  ZINC000770814339    0.0700
      7 O7        -10.2780   -1.6224   58.7011 O.3     1  ZINC000770814339   -0.1800
      8 N8         -9.8911   -1.6489   57.3392 N.2     1  ZINC000770814339   -0.2800
      9 C9        -10.7959   -1.7483   56.4067 C.2     1  ZINC000770814339    0.1800
     10 C10       -10.3909   -1.7779   54.9814 C.2     1  ZINC000770814339    0.5900
     11 O11        -9.7424   -2.7121   54.5533 O.2     1  ZINC000770814339   -0.5100
     12 N12       -10.7417   -0.7686   54.1601 N.am    1  ZINC000770814339   -0.7000
     13 C13       -10.3428   -0.7987   52.7508 C.3     1  ZINC000770814339    0.1500
     14 C14        -9.1100    0.0467   52.5594 C.ar    1  ZINC000770814339   -0.0600
     15 C15        -7.9014   -0.5520   52.2568 C.ar    1  ZINC000770814339   -0.1200
     16 C16        -6.7706    0.2235   52.0813 C.ar    1  ZINC000770814339   -0.0200
     17 C17        -6.8485    1.5978   52.2079 C.ar    1  ZINC000770814339   -0.6700
     18 S18        -5.4070    2.5862   51.9847 S.o2    1  ZINC000770814339    2.7000
     19 N19        -4.8870    3.0414   53.4895 N.am    1  ZINC000770814339   -1.2500
     20 O20        -4.4072    1.7245   51.4582 O.2     1  ZINC000770814339   -0.9600
     21 O21        -5.8323    3.7740   51.3307 O.2     1  ZINC000770814339   -0.9600
     22 C22        -8.0574    2.1967   52.5091 C.ar    1  ZINC000770814339   -0.0200
     23 C23        -9.1890    1.4215   52.6808 C.ar    1  ZINC000770814339   -0.1200
     24 C24       -12.2245   -1.8312   56.7701 C.2     1  ZINC000770814339    0.0600
     25 C25       -12.9349   -2.9806   57.0419 C.2     1  ZINC000770814339   -0.2000
     26 C26       -14.2451   -2.6082   57.3390 C.2     1  ZINC000770814339    0.0400
     27 N27       -14.3401   -1.3052   57.2559 N.2     1  ZINC000770814339   -0.2600
     28 N28       -13.0886   -0.7838   56.9056 N.pl3   1  ZINC000770814339   -0.4400
     29 H29       -11.4688    1.5941   61.3532 H       1  ZINC000770814339    0.0800
     30 H30        -9.7918    2.1883   61.4068 H       1  ZINC000770814339    0.0700
     31 H31       -10.3954    1.3569   59.9533 H       1  ZINC000770814339    0.0700
     32 H32       -10.0348    0.0912   62.7074 H       1  ZINC000770814339    0.0700
     33 H33       -10.6384   -0.7403   61.2539 H       1  ZINC000770814339    0.0700
     34 H34        -8.5766   -2.7138   59.1282 H       1  ZINC000770814339    0.1100
     35 H35        -9.6757   -2.4386   60.5009 H       1  ZINC000770814339    0.1100
     36 H36       -11.2583   -0.0222   54.5021 H       1  ZINC000770814339    0.4100
     37 H37       -10.1284   -1.8258   52.4557 H       1  ZINC000770814339    0.0900
     38 H38       -11.1522   -0.4052   52.1357 H       1  ZINC000770814339    0.0900
     39 H39        -7.8405   -1.6258   52.1580 H       1  ZINC000770814339    0.1400
     40 H40        -5.8262   -0.2445   51.8456 H       1  ZINC000770814339    0.1500
     41 H41        -4.6387    2.3673   54.1413 H       1  ZINC000770814339    0.4200
     42 H42        -4.8305    3.9822   53.7191 H       1  ZINC000770814339    0.4200
     43 H43        -8.1184    3.2705   52.6076 H       1  ZINC000770814339    0.1500
     44 H44       -10.1335    1.8894   52.9162 H       1  ZINC000770814339    0.1400
     45 H45       -12.5466   -3.9883   57.0272 H       1  ZINC000770814339    0.1700
     46 H46       -15.0486   -3.2829   57.5950 H       1  ZINC000770814339    0.1900
     47 H47       -12.8754    0.1536   56.7766 H       1  ZINC000770814339    0.4500
@<TRIPOS>BOND
     1     1     2    1
     2     1    29    1
     3     1    30    1
     4     1    31    1
     5     2     3    1
     6     2    32    1
     7     2    33    1
     8     3     4    1
     9     4     5    2
    10     4     6    1
    11     6     7    1
    12     6    34    1
    13     6    35    1
    14     7     8    1
    15     8     9    2
    16     9    10    1
    17     9    24    1
    18    10    11    2
    19    10    12   am
    20    12    13    1
    21    12    36    1
    22    13    14    1
    23    13    37    1
    24    13    38    1
    25    14    23   ar
    26    14    15   ar
    27    15    16   ar
    28    15    39    1
    29    16    17   ar
    30    16    40    1
    31    17    18    1
    32    17    22   ar
    33    18    19   am
    34    18    20    2
    35    18    21    2
    36    19    41    1
    37    19    42    1
    38    22    23   ar
    39    22    43    1
    40    23    44    1
    41    24    28    1
    42    24    25    2
    43    25    26    1
    44    25    45    1
    45    26    27    2
    46    26    46    1
    47    27    28    1
    48    28    47    1
@<TRIPOS>SUBSTRUCTURE
     1 ZINC000770814339        1 TEMP              0 ****  ****    0 ROOT


##########                                Name:    ZINC001109848453
##########                DOCK_Rotatable_Bonds:                   8
##########                         Heavy_Atoms:                  24
##########                    Molecular_Weight:             328.337
##########                DOCK_Rotatable_Bonds:                   8
##########                       Formal_Charge:          0.00999966
##########                     HBond_Acceptors:                  11
##########                        HBond_Donors:                   2
##########                         Heavy_Atoms:                  24
##########                          Grid_Score:          -35.926994
##########                     Grid_vdw_energy:          -33.309799
##########                      Grid_es_energy:           -2.617194
##########           Internal_energy_repulsive:            6.774029

@<TRIPOS>MOLECULE
ZINC001109848453
 40 43 1 0 0
SMALL
USER_CHARGES


@<TRIPOS>ATOM
      1 O1        -11.0558    0.6809   61.7374 O.2     1  ZINC001109848453   -0.5000
      2 C2         -9.9424    1.0972   61.9782 C.2     1  ZINC001109848453    0.5000
      3 C3         -9.6842    1.8674   63.2476 C.3     1  ZINC001109848453    0.1100
      4 N4         -9.3039    0.9378   64.3140 N.pl3   1  ZINC001109848453   -0.3700
      5 C5         -8.6734   -0.2406   64.1689 C.2     1  ZINC001109848453    0.2600
      6 N6         -8.5156   -0.7658   65.3568 N.2     1  ZINC001109848453   -0.5400
      7 C7         -9.0302    0.0445   66.2810 C.2     1  ZINC001109848453    0.2000
      8 N8         -9.5201    1.1035   65.6918 N.2     1  ZINC001109848453   -0.2900
      9 N9         -8.9348    0.8662   61.1135 N.am    1  ZINC001109848453   -0.7300
     10 C10        -9.1858    0.1175   59.8795 C.3     1  ZINC001109848453    0.1700
     11 H11       -10.2357    0.2143   59.6029 H       1  ZINC001109848453    0.1000
     12 C12        -8.8509   -1.3588   60.1016 C.3     1  ZINC001109848453    0.1200
     13 N13       -10.0825   -2.1026   60.3779 N.pl3   1  ZINC001109848453   -0.6800
     14 C14       -10.8640   -2.5617   59.3305 C.2     1  ZINC001109848453    0.4900
     15 N15       -10.3041   -2.9334   58.1956 N.2     1  ZINC001109848453   -0.5300
     16 C16       -11.0431   -3.3788   57.1763 C.2     1  ZINC001109848453    0.1400
     17 C17       -12.3863   -3.4657   57.2661 C.2     1  ZINC001109848453   -0.0500
     18 N18       -13.0193   -3.0937   58.4194 N.pl3   1  ZINC001109848453   -0.1800
     19 N19       -14.2478   -3.0628   58.7978 N.2     1  ZINC001109848453   -0.1000
     20 N20       -14.3096   -2.6193   60.0054 N.2     1  ZINC001109848453   -0.0400
     21 N21       -13.1239   -2.3523   60.4388 N.2     1  ZINC001109848453   -0.2600
     22 C22       -12.2696   -2.6420   59.4704 C.2     1  ZINC001109848453    0.1000
     23 C23        -8.3090    0.6759   58.7568 C.3     1  ZINC001109848453   -0.1800
     24 C24        -8.9039    0.7123   57.3476 C.3     1  ZINC001109848453   -0.1700
     25 C25        -8.7227    2.0114   58.1353 C.3     1  ZINC001109848453   -0.1700
     26 H26        -8.8765    2.5805   63.0820 H       1  ZINC001109848453    0.1300
     27 H27       -10.5880    2.4031   63.5378 H       1  ZINC001109848453    0.1200
     28 H28        -8.3535   -0.6779   63.2346 H       1  ZINC001109848453    0.2200
     29 H29        -9.0375   -0.1417   67.3448 H       1  ZINC001109848453    0.2200
     30 H30        -8.0435    1.1958   61.3081 H       1  ZINC001109848453    0.4000
     31 H31        -8.3757   -1.7621   59.2075 H       1  ZINC001109848453    0.1000
     32 H32        -8.1714   -1.4538   60.9486 H       1  ZINC001109848453    0.0900
     33 H33       -10.3507   -2.2735   61.2943 H       1  ZINC001109848453    0.4200
     34 H34       -10.5547   -3.6756   56.2599 H       1  ZINC001109848453    0.2000
     35 H35       -12.9616   -3.8286   56.4272 H       1  ZINC001109848453    0.1900
     36 H36        -7.2421    0.4722   58.8480 H       1  ZINC001109848453    0.1100
     37 H37        -8.2284    0.5324   56.5113 H       1  ZINC001109848453    0.1000
     38 H38        -9.9198    0.3384   57.2204 H       1  ZINC001109848453    0.1000
     39 H39        -9.6194    2.4922   58.5263 H       1  ZINC001109848453    0.1200
     40 H40        -7.9280    2.6862   57.8173 H       1  ZINC001109848453    0.0900
@<TRIPOS>BOND
     1     1     2    2
     2     2     3    1
     3     2     9   am
     4     3     4    1
     5     3    26    1
     6     3    27    1
     7     4     8    1
     8     4     5    1
     9     5     6    2
    10     5    28    1
    11     6     7    1
    12     7     8    2
    13     7    29    1
    14     9    10    1
    15     9    30    1
    16    10    11    1
    17    10    12    1
    18    10    23    1
    19    12    13    1
    20    12    31    1
    21    12    32    1
    22    13    14    1
    23    13    33    1
    24    14    22    1
    25    14    15    2
    26    15    16    1
    27    16    17    2
    28    16    34    1
    29    17    18    1
    30    17    35    1
    31    18    22    1
    32    18    19    1
    33    19    20    2
    34    20    21    1
    35    21    22    2
    36    23    25    1
    37    23    24    1
    38    23    36    1
    39    24    25    1
    40    24    37    1
    41    24    38    1
    42    25    39    1
    43    25    40    1
@<TRIPOS>SUBSTRUCTURE
     1 ZINC001109848453        1 TEMP              0 ****  ****    0 ROOT


##########                                Name:    ZINC000508765459
##########                DOCK_Rotatable_Bonds:                  10
##########                         Heavy_Atoms:                  29
##########                    Molecular_Weight:               405.5
##########                DOCK_Rotatable_Bonds:                  10
##########                       Formal_Charge:         -6.4075e-07
##########                     HBond_Acceptors:                  10
##########                        HBond_Donors:                   1
##########                         Heavy_Atoms:                  29
##########                          Grid_Score:          -35.823215
##########                     Grid_vdw_energy:          -36.560982
##########                      Grid_es_energy:            0.737766
##########           Internal_energy_repulsive:           14.486146

@<TRIPOS>MOLECULE
ZINC000508765459
 60 62 1 0 0
SMALL
USER_CHARGES


@<TRIPOS>ATOM
      1 C1         -4.9013    3.0199   52.7186 C.3     1  ZINC000508765459    0.0300
      2 O2         -5.1058    1.7811   52.0361 O.3     1  ZINC000508765459   -0.3900
      3 C3         -6.0251    0.9030   52.6887 C.3     1  ZINC000508765459    0.0500
      4 C4         -7.4240    1.1011   52.1016 C.3     1  ZINC000508765459    0.1100
      5 N5         -8.3820    0.2656   52.8297 N.am    1  ZINC000508765459   -0.5900
      6 C6         -9.0622    0.8559   53.9744 C.3     1  ZINC000508765459    0.1000
      7 C7        -10.3620    0.1082   54.2780 C.3     1  ZINC000508765459    0.1200
      8 N8        -10.0765   -1.3365   54.2589 N.am    1  ZINC000508765459   -0.6400
      9 C9        -10.2531   -2.1006   55.3549 C.2     1  ZINC000508765459    0.7100
     10 O10       -10.0083   -3.2908   55.3122 O.2     1  ZINC000508765459   -0.5800
     11 N11       -10.7011   -1.5453   56.4984 N.am    1  ZINC000508765459   -0.7400
     12 C12       -10.8914   -2.3756   57.6904 C.3     1  ZINC000508765459    0.1400
     13 C13       -10.0753   -1.7991   58.8491 C.3     1  ZINC000508765459   -0.1400
     14 C14       -10.4955   -0.3490   59.0969 C.3     1  ZINC000508765459    0.0600
     15 N15       -10.3352   -0.0294   60.5217 N.3     1  ZINC000508765459   -0.5400
     16 C16       -11.1070    1.1679   60.8830 C.3     1  ZINC000508765459    0.0500
     17 C17       -10.9778    1.4202   62.3870 C.3     1  ZINC000508765459    0.0700
     18 N18        -9.5593    1.5873   62.7329 N.3     1  ZINC000508765459   -0.4600
     19 C19        -9.4083    1.8883   64.0754 C.ar    1  ZINC000508765459    0.4900
     20 N20        -9.2591    0.9015   64.9468 N.ar    1  ZINC000508765459   -0.5500
     21 C21        -9.1121    1.1547   66.2367 C.ar    1  ZINC000508765459    0.1700
     22 C22        -9.1154    2.4707   66.6719 C.ar    1  ZINC000508765459   -0.2600
     23 C23        -9.2736    3.4786   65.7337 C.ar    1  ZINC000508765459    0.1700
     24 N24        -9.4109    3.1569   64.4580 N.ar    1  ZINC000508765459   -0.5300
     25 C25        -8.7875    0.3901   62.3716 C.3     1  ZINC000508765459    0.0700
     26 C26        -8.9167    0.1377   60.8676 C.3     1  ZINC000508765459    0.0600
     27 C27        -9.5915   -1.9113   52.9954 C.3     1  ZINC000508765459    0.1000
     28 C28        -8.5742   -0.9805   52.3946 C.2     1  ZINC000508765459    0.5100
     29 O29        -7.8909   -1.3844   51.4776 O.2     1  ZINC000508765459   -0.5400
     30 H30        -4.5067    2.8245   53.7157 H       1  ZINC000508765459    0.0400
     31 H31        -4.1911    3.6295   52.1598 H       1  ZINC000508765459    0.0900
     32 H32        -5.8499    3.5505   52.8006 H       1  ZINC000508765459    0.0400
     33 H33        -5.7107   -0.1297   52.5377 H       1  ZINC000508765459    0.0500
     34 H34        -6.0442    1.1247   53.7558 H       1  ZINC000508765459    0.0600
     35 H35        -7.7117    2.1484   52.1937 H       1  ZINC000508765459    0.1100
     36 H36        -7.4201    0.8167   51.0493 H       1  ZINC000508765459    0.0900
     37 H37        -8.4082    0.8065   54.8450 H       1  ZINC000508765459    0.0700
     38 H38        -9.2909    1.8992   53.7571 H       1  ZINC000508765459    0.1000
     39 H39       -10.7313    0.3972   55.2620 H       1  ZINC000508765459    0.1200
     40 H40       -11.1085    0.3456   53.5200 H       1  ZINC000508765459    0.0800
     41 H41       -10.8975   -0.5961   56.5322 H       1  ZINC000508765459    0.4000
     42 H42       -11.9474   -2.3874   57.9602 H       1  ZINC000508765459    0.0700
     43 H43       -10.5582   -3.3923   57.4819 H       1  ZINC000508765459    0.0700
     44 H44       -10.2549   -2.3882   59.7484 H       1  ZINC000508765459    0.0700
     45 H45        -9.0150   -1.8324   58.5986 H       1  ZINC000508765459    0.0800
     46 H46        -9.8703    0.3172   58.5025 H       1  ZINC000508765459    0.0800
     47 H47       -11.5393   -0.2192   58.8107 H       1  ZINC000508765459    0.0400
     48 H48       -10.7215    2.0280   60.3355 H       1  ZINC000508765459    0.0500
     49 H49       -12.1558    1.0148   60.6287 H       1  ZINC000508765459    0.0900
     50 H50       -11.5257    2.3242   62.6525 H       1  ZINC000508765459    0.0900
     51 H51       -11.3881    0.5718   62.9347 H       1  ZINC000508765459    0.0600
     52 H52        -8.9912    0.3461   66.9422 H       1  ZINC000508765459    0.1700
     53 H53        -8.9976    2.7057   67.7195 H       1  ZINC000508765459    0.1500
     54 H54        -9.2810    4.5142   66.0400 H       1  ZINC000508765459    0.1700
     55 H55        -7.7386    0.5430   62.6259 H       1  ZINC000508765459    0.1000
     56 H56        -9.1730   -0.4700   62.9191 H       1  ZINC000508765459    0.0500
     57 H57        -8.3688   -0.7664   60.6022 H       1  ZINC000508765459    0.0900
     58 H58        -8.5063    0.9861   60.3200 H       1  ZINC000508765459    0.0500
     59 H59        -9.1339   -2.8818   53.1877 H       1  ZINC000508765459    0.1100
     60 H60       -10.4259   -2.0298   52.3042 H       1  ZINC000508765459    0.1100
@<TRIPOS>BOND
     1     1     2    1
     2     1    30    1
     3     1    31    1
     4     1    32    1
     5     2     3    1
     6     3     4    1
     7     3    33    1
     8     3    34    1
     9     4     5    1
    10     4    35    1
    11     4    36    1
    12     5    28   am
    13     5     6    1
    14     6     7    1
    15     6    37    1
    16     6    38    1
    17     7     8    1
    18     7    39    1
    19     7    40    1
    20     8     9   am
    21     8    27    1
    22     9    10    2
    23     9    11   am
    24    11    12    1
    25    11    41    1
    26    12    13    1
    27    12    42    1
    28    12    43    1
    29    13    14    1
    30    13    44    1
    31    13    45    1
    32    14    15    1
    33    14    46    1
    34    14    47    1
    35    15    26    1
    36    15    16    1
    37    16    17    1
    38    16    48    1
    39    16    49    1
    40    17    18    1
    41    17    50    1
    42    17    51    1
    43    18    19    1
    44    18    25    1
    45    19    24   ar
    46    19    20   ar
    47    20    21   ar
    48    21    22   ar
    49    21    52    1
    50    22    23   ar
    51    22    53    1
    52    23    24   ar
    53    23    54    1
    54    25    26    1
    55    25    55    1
    56    25    56    1
    57    26    57    1
    58    26    58    1
    59    27    28    1
    60    27    59    1
    61    27    60    1
    62    28    29    2
@<TRIPOS>SUBSTRUCTURE
     1 ZINC000508765459        1 TEMP              0 ****  ****    0 ROOT


##########                                Name:    ZINC000552360217
##########                DOCK_Rotatable_Bonds:                  13
##########                         Heavy_Atoms:                  27
##########                    Molecular_Weight:             401.484
##########                DOCK_Rotatable_Bonds:                  13
##########                       Formal_Charge:          -0.0100002
##########                     HBond_Acceptors:                  10
##########                        HBond_Donors:                   3
##########                         Heavy_Atoms:                  27
##########                          Grid_Score:          -35.704548
##########                     Grid_vdw_energy:          -34.339626
##########                      Grid_es_energy:           -1.364920
##########           Internal_energy_repulsive:           17.568233

@<TRIPOS>MOLECULE
ZINC000552360217
 54 54 1 0 0
SMALL
USER_CHARGES


@<TRIPOS>ATOM
      1 C1         -8.6241    3.2974   52.5261 C.3     1  ZINC000552360217    0.0800
      2 N2         -7.6070    2.2975   52.1913 N.am    1  ZINC000552360217   -1.0000
      3 C3         -6.4676    2.6660   51.3475 C.3     1  ZINC000552360217    0.0900
      4 S4         -7.7453    0.7509   52.7667 S.o2    1  ZINC000552360217    2.7000
      5 O5         -9.0377    0.2965   52.3894 O.2     1  ZINC000552360217   -0.9500
      6 O6         -6.5478    0.0784   52.4018 O.2     1  ZINC000552360217   -0.9500
      7 C7         -7.7456    0.8471   54.5260 C.ar    1  ZINC000552360217   -0.6900
      8 C8         -8.6726    0.1255   55.2565 C.ar    1  ZINC000552360217    0.0100
      9 C9         -8.6794    0.1951   56.6386 C.ar    1  ZINC000552360217   -0.1400
     10 C10        -7.7606    0.9857   57.2969 C.ar    1  ZINC000552360217   -0.0300
     11 C11        -6.8224    1.7164   56.5657 C.ar    1  ZINC000552360217   -0.1600
     12 C12        -5.8343    2.5654   57.2647 C.2     1  ZINC000552360217    0.5600
     13 O13        -6.1931    3.3018   58.1629 O.2     1  ZINC000552360217   -0.5300
     14 N14        -4.5359    2.5230   56.9062 N.am    1  ZINC000552360217   -0.7100
     15 C15        -3.5565    3.3631   57.6000 C.3     1  ZINC000552360217    0.1000
     16 C16        -2.2288    2.6518   57.6477 C.2     1  ZINC000552360217    0.5100
     17 O17        -1.5520    2.5631   56.6452 O.2     1  ZINC000552360217   -0.5400
     18 N18        -1.7935    2.1141   58.8044 N.am    1  ZINC000552360217   -0.7200
     19 C19        -0.5020    1.4241   58.8511 C.3     1  ZINC000552360217    0.1400
     20 C20         0.1718    1.6937   60.1980 C.3     1  ZINC000552360217    0.1000
     21 C21         0.4721    3.1884   60.3277 C.3     1  ZINC000552360217   -0.1800
     22 C22        -0.7611    1.2608   61.3308 C.3     1  ZINC000552360217   -0.1800
     23 O23         1.3920    0.9542   60.2768 O.3     1  ZINC000552360217   -0.3700
     24 C24         1.9506    0.8926   61.5906 C.3     1  ZINC000552360217    0.0600
     25 C25         3.3451    0.2667   61.5231 C.3     1  ZINC000552360217    0.0800
     26 O26         4.1929    1.0791   60.7086 O.3     1  ZINC000552360217   -0.5700
     27 C27        -6.8176    1.6376   55.1724 C.ar    1  ZINC000552360217    0.0400
     28 H28        -9.4111    3.2817   51.7721 H       1  ZINC000552360217    0.0600
     29 H29        -9.0516    3.0680   53.5023 H       1  ZINC000552360217    0.0900
     30 H30        -8.1664    4.2863   52.5532 H       1  ZINC000552360217    0.0800
     31 H31        -6.5473    3.7165   51.0676 H       1  ZINC000552360217    0.0800
     32 H32        -5.5407    2.5062   51.8984 H       1  ZINC000552360217    0.0700
     33 H33        -6.4668    2.0496   50.4485 H       1  ZINC000552360217    0.0600
     34 H34        -9.3945   -0.4948   54.7459 H       1  ZINC000552360217    0.1500
     35 H35        -9.4061   -0.3705   57.2029 H       1  ZINC000552360217    0.1400
     36 H36        -7.7671    1.0394   58.3755 H       1  ZINC000552360217    0.1400
     37 H37        -4.2497    1.9364   56.1886 H       1  ZINC000552360217    0.4100
     38 H38        -3.4441    4.3068   57.0661 H       1  ZINC000552360217    0.1000
     39 H39        -3.9005    3.5590   58.6156 H       1  ZINC000552360217    0.1000
     40 H40        -2.3354    2.1840   59.6059 H       1  ZINC000552360217    0.4100
     41 H41        -0.6583    0.3520   58.7312 H       1  ZINC000552360217    0.0800
     42 H42         0.1351    1.7906   58.0462 H       1  ZINC000552360217    0.0900
     43 H43        -0.4586    3.7525   60.2677 H       1  ZINC000552360217    0.0700
     44 H44         0.9522    3.3805   61.2873 H       1  ZINC000552360217    0.0700
     45 H45         1.1367    3.4969   59.5208 H       1  ZINC000552360217    0.0700
     46 H46        -0.9750    0.1960   61.2384 H       1  ZINC000552360217    0.0600
     47 H47        -0.2810    1.4529   62.2903 H       1  ZINC000552360217    0.0700
     48 H48        -1.6917    1.8249   61.2707 H       1  ZINC000552360217    0.0700
     49 H49         2.0237    1.8994   62.0019 H       1  ZINC000552360217    0.0600
     50 H50         1.3101    0.2847   62.2296 H       1  ZINC000552360217    0.0700
     51 H51         3.7622    0.1997   62.5279 H       1  ZINC000552360217    0.0600
     52 H52         3.2747   -0.7317   61.0915 H       1  ZINC000552360217    0.0500
     53 H53         4.3013    1.9834   61.0335 H       1  ZINC000552360217    0.3800
     54 H54        -6.0944    2.2005   54.6010 H       1  ZINC000552360217    0.1500
@<TRIPOS>BOND
     1     1     2    1
     2     1    28    1
     3     1    29    1
     4     1    30    1
     5     2     3    1
     6     2     4   am
     7     3    31    1
     8     3    32    1
     9     3    33    1
    10     4     5    2
    11     4     6    2
    12     4     7    1
    13     7    27   ar
    14     7     8   ar
    15     8     9   ar
    16     8    34    1
    17     9    10   ar
    18     9    35    1
    19    10    11   ar
    20    10    36    1
    21    11    12    1
    22    11    27   ar
    23    12    13    2
    24    12    14   am
    25    14    15    1
    26    14    37    1
    27    15    16    1
    28    15    38    1
    29    15    39    1
    30    16    17    2
    31    16    18   am
    32    18    19    1
    33    18    40    1
    34    19    20    1
    35    19    41    1
    36    19    42    1
    37    20    21    1
    38    20    22    1
    39    20    23    1
    40    21    43    1
    41    21    44    1
    42    21    45    1
    43    22    46    1
    44    22    47    1
    45    22    48    1
    46    23    24    1
    47    24    25    1
    48    24    49    1
    49    24    50    1
    50    25    26    1
    51    25    51    1
    52    25    52    1
    53    26    53    1
    54    27    54    1
@<TRIPOS>SUBSTRUCTURE
     1 ZINC000552360217        1 TEMP              0 ****  ****    0 ROOT


##########                                Name:    ZINC000489986384
##########                DOCK_Rotatable_Bonds:                  11
##########                         Heavy_Atoms:                  31
##########                    Molecular_Weight:             415.492
##########                DOCK_Rotatable_Bonds:                  11
##########                       Formal_Charge:          -0.0499997
##########                     HBond_Acceptors:                   6
##########                        HBond_Donors:                   2
##########                         Heavy_Atoms:                  31
##########                          Grid_Score:          -35.302006
##########                     Grid_vdw_energy:          -34.387283
##########                      Grid_es_energy:           -0.914722
##########           Internal_energy_repulsive:           17.167431

@<TRIPOS>MOLECULE
ZINC000489986384
 56 59 1 0 0
SMALL
USER_CHARGES


@<TRIPOS>ATOM
      1 O1        -12.3422   -3.6028   56.5309 O.2     1  ZINC000489986384   -0.5000
      2 C2        -11.9203   -3.3574   57.6412 C.2     1  ZINC000489986384    0.4900
      3 C3        -10.4356   -3.3563   57.8999 C.3     1  ZINC000489986384    0.0900
      4 N4         -9.8657   -2.0776   57.4682 N.pl3   1  ZINC000489986384   -0.4700
      5 C5         -9.7156   -1.6469   56.1651 C.ar    1  ZINC000489986384    0.0700
      6 C6        -10.0113   -2.1962   54.9253 C.ar    1  ZINC000489986384   -0.1100
      7 C7         -9.7270   -1.4858   53.7781 C.ar    1  ZINC000489986384   -0.0900
      8 C8         -9.1475   -0.2276   53.8558 C.ar    1  ZINC000489986384   -0.1300
      9 C9         -8.8490    0.3287   55.0675 C.ar    1  ZINC000489986384   -0.0600
     10 C10        -9.1289   -0.3722   56.2431 C.ar    1  ZINC000489986384    0.0500
     11 N11        -8.9550   -0.0971   57.5614 N.2     1  ZINC000489986384   -0.4600
     12 C12        -9.3918   -1.0919   58.2772 C.2     1  ZINC000489986384    0.2800
     13 C13        -9.3658   -1.1489   59.7829 C.3     1  ZINC000489986384    0.1400
     14 O14        -9.3243    0.1790   60.3092 O.3     1  ZINC000489986384   -0.3000
     15 C15        -9.2904    0.3058   61.6619 C.ar    1  ZINC000489986384    0.1300
     16 C16        -8.2868   -0.3132   62.3928 C.ar    1  ZINC000489986384   -0.2100
     17 C17        -8.2543   -0.1824   63.7677 C.ar    1  ZINC000489986384   -0.0800
     18 C18        -9.2211    0.5643   64.4154 C.ar    1  ZINC000489986384   -0.1600
     19 C19       -10.2226    1.1818   63.6892 C.ar    1  ZINC000489986384   -0.0800
     20 C20       -10.2560    1.0591   62.3135 C.ar    1  ZINC000489986384   -0.1500
     21 N21       -12.7789   -3.0801   58.6424 N.am    1  ZINC000489986384   -0.7300
     22 C22       -14.2221   -3.0812   58.3909 C.3     1  ZINC000489986384    0.1300
     23 C23       -14.8986   -2.0515   59.2981 C.3     1  ZINC000489986384   -0.0600
     24 H24       -15.8992   -2.3976   59.5577 H       1  ZINC000489986384    0.0900
     25 C25       -14.0729   -1.8753   60.5739 C.3     1  ZINC000489986384    0.0800
     26 O26       -14.6968   -0.9025   61.4145 O.3     1  ZINC000489986384   -0.5700
     27 C27       -14.9951   -0.7323   58.5759 C.ar    1  ZINC000489986384   -0.0700
     28 C28       -13.9825   -0.3358   57.7227 C.ar    1  ZINC000489986384   -0.1100
     29 C29       -14.0710    0.8744   57.0603 C.ar    1  ZINC000489986384   -0.1200
     30 C30       -15.1724    1.6877   57.2509 C.ar    1  ZINC000489986384   -0.1200
     31 C31       -16.1855    1.2907   58.1035 C.ar    1  ZINC000489986384   -0.1200
     32 C32       -16.0990    0.0787   58.7626 C.ar    1  ZINC000489986384   -0.1100
     33 H33       -10.2523   -3.4944   58.9655 H       1  ZINC000489986384    0.1200
     34 H34        -9.9691   -4.1686   57.3426 H       1  ZINC000489986384    0.1200
     35 H35       -10.4617   -3.1756   54.8593 H       1  ZINC000489986384    0.1200
     36 H36        -9.9565   -1.9120   52.8127 H       1  ZINC000489986384    0.1300
     37 H37        -8.9299    0.3174   52.9491 H       1  ZINC000489986384    0.1300
     38 H38        -8.3973    1.3085   55.1164 H       1  ZINC000489986384    0.1300
     39 H39       -10.2618   -1.6546   60.1428 H       1  ZINC000489986384    0.0800
     40 H40        -8.4827   -1.6973   60.1106 H       1  ZINC000489986384    0.1000
     41 H41        -7.5318   -0.8971   61.8874 H       1  ZINC000489986384    0.1300
     42 H42        -7.4732   -0.6640   64.3372 H       1  ZINC000489986384    0.1300
     43 H43        -9.1940    0.6651   65.4903 H       1  ZINC000489986384    0.1200
     44 H44       -10.9768    1.7643   64.1974 H       1  ZINC000489986384    0.1300
     45 H45       -11.0385    1.5417   61.7468 H       1  ZINC000489986384    0.1300
     46 H46       -12.4412   -2.8800   59.5294 H       1  ZINC000489986384    0.4000
     47 H47       -14.4095   -2.8254   57.3481 H       1  ZINC000489986384    0.0800
     48 H48       -14.6268   -4.0714   58.6004 H       1  ZINC000489986384    0.0800
     49 H49       -14.0128   -2.8268   61.1022 H       1  ZINC000489986384    0.0500
     50 H50       -13.0689   -1.5402   60.3137 H       1  ZINC000489986384    0.0500
     51 H51       -14.7838   -0.0293   61.0081 H       1  ZINC000489986384    0.3800
     52 H52       -13.1221   -0.9712   57.5738 H       1  ZINC000489986384    0.1200
     53 H53       -13.2795    1.1845   56.3942 H       1  ZINC000489986384    0.1200
     54 H54       -15.2413    2.6334   56.7339 H       1  ZINC000489986384    0.1200
     55 H55       -17.0459    1.9263   58.2526 H       1  ZINC000489986384    0.1200
     56 H56       -16.8905   -0.2315   59.4287 H       1  ZINC000489986384    0.1200
@<TRIPOS>BOND
     1     1     2    2
     2     2     3    1
     3     2    21   am
     4     3     4    1
     5     3    33    1
     6     3    34    1
     7     4    12    1
     8     4     5    1
     9     5    10   ar
    10     5     6   ar
    11     6     7   ar
    12     6    35    1
    13     7     8   ar
    14     7    36    1
    15     8     9   ar
    16     8    37    1
    17     9    10   ar
    18     9    38    1
    19    10    11    1
    20    11    12    2
    21    12    13    1
    22    13    14    1
    23    13    39    1
    24    13    40    1
    25    14    15    1
    26    15    20   ar
    27    15    16   ar
    28    16    17   ar
    29    16    41    1
    30    17    18   ar
    31    17    42    1
    32    18    19   ar
    33    18    43    1
    34    19    20   ar
    35    19    44    1
    36    20    45    1
    37    21    22    1
    38    21    46    1
    39    22    23    1
    40    22    47    1
    41    22    48    1
    42    23    24    1
    43    23    25    1
    44    23    27    1
    45    25    26    1
    46    25    49    1
    47    25    50    1
    48    26    51    1
    49    27    32   ar
    50    27    28   ar
    51    28    29   ar
    52    28    52    1
    53    29    30   ar
    54    29    53    1
    55    30    31   ar
    56    30    54    1
    57    31    32   ar
    58    31    55    1
    59    32    56    1
@<TRIPOS>SUBSTRUCTURE
     1 ZINC000489986384        1 TEMP              0 ****  ****    0 ROOT


##########                                Name:    ZINC000439870054
##########                DOCK_Rotatable_Bonds:                   5
##########                         Heavy_Atoms:                  27
##########                    Molecular_Weight:             421.974
##########                DOCK_Rotatable_Bonds:                   5
##########                       Formal_Charge:           0.0200003
##########                     HBond_Acceptors:                   9
##########                        HBond_Donors:                   0
##########                         Heavy_Atoms:                  27
##########                          Grid_Score:          -35.266071
##########                     Grid_vdw_energy:          -35.405308
##########                      Grid_es_energy:            0.139235
##########           Internal_energy_repulsive:           70.698845

@<TRIPOS>MOLECULE
ZINC000439870054
 47 50 1 0 0
SMALL
USER_CHARGES


@<TRIPOS>ATOM
      1 C1         -6.5727    1.4235   51.9275 C.3     1  ZINC000439870054   -0.1400
      2 C2         -6.9752    1.7757   53.3610 C.3     1  ZINC000439870054    0.0000
      3 C3         -7.3255    3.2630   53.4415 C.3     1  ZINC000439870054   -0.1400
      4 C4         -8.1736    0.9549   53.7624 C.2     1  ZINC000439870054    0.1900
      5 N5         -9.0819    0.4620   52.9602 N.2     1  ZINC000439870054   -0.2900
      6 N6         -9.9628   -0.1844   53.6446 N.2     1  ZINC000439870054   -0.2700
      7 C7         -9.6563   -0.1294   54.9039 C.2     1  ZINC000439870054    0.1600
      8 C8        -10.3921   -0.7231   56.0808 C.3     1  ZINC000439870054    0.2400
      9 H9        -11.3180   -0.1752   56.2557 H       1  ZINC000439870054    0.1100
     10 C10       -10.7009   -2.1976   55.8136 C.3     1  ZINC000439870054   -0.1300
     11 N11        -9.5037   -0.5972   57.2519 N.am    1  ZINC000439870054   -0.6300
     12 C12        -9.3576   -1.6146   58.1236 C.2     1  ZINC000439870054    0.5300
     13 O13        -9.9612   -2.6523   57.9510 O.2     1  ZINC000439870054   -0.4900
     14 C14        -8.4444   -1.4628   59.3127 C.3     1  ZINC000439870054   -0.0700
     15 C15        -9.1380   -0.6543   60.3788 C.2     1  ZINC000439870054    0.0900
     16 C16       -10.2801   -0.0020   60.1437 C.2     1  ZINC000439870054   -0.2400
     17 S17       -10.7655    0.8155   61.6276 S.3     1  ZINC000439870054    0.1300
     18 C18        -9.3385    0.1779   62.4406 C.2     1  ZINC000439870054    0.1400
     19 C19        -8.9744    0.4234   63.8445 C.2     1  ZINC000439870054   -0.1300
     20 C20        -9.5556    1.3363   64.6529 C.2     1  ZINC000439870054   -0.1000
     21 C21        -9.0429    1.3824   65.9312 C.2     1  ZINC000439870054   -0.1200
     22 C22        -8.0504    0.5181   66.1755 C.2     1  ZINC000439870054   -0.1500
     23 Cl23       -7.2190    0.3546   67.6908 Cl      1  ZINC000439870054    0.0000
     24 S24        -7.7199   -0.4315   64.7329 S.3     1  ZINC000439870054    0.2500
     25 N25        -8.6595   -0.5519   61.5983 N.2     1  ZINC000439870054   -0.4400
     26 C26        -8.7815    0.6701   57.4406 C.3     1  ZINC000439870054    0.0900
     27 C27        -7.8157    0.8809   56.2686 C.3     1  ZINC000439870054    0.0900
     28 N28        -8.5079    0.5855   55.0148 N.pl3   1  ZINC000439870054   -0.4700
     29 H29        -5.7059    2.0172   51.6372 H       1  ZINC000439870054    0.0700
     30 H30        -6.3231    0.3639   51.8702 H       1  ZINC000439870054    0.0500
     31 H31        -7.4023    1.6383   51.2540 H       1  ZINC000439870054    0.0700
     32 H32        -6.1456    1.5610   54.0345 H       1  ZINC000439870054    0.0800
     33 H33        -7.6123    3.5139   54.4627 H       1  ZINC000439870054    0.0500
     34 H34        -6.4587    3.8566   53.1512 H       1  ZINC000439870054    0.0700
     35 H35        -8.1551    3.4777   52.7680 H       1  ZINC000439870054    0.0700
     36 H36        -9.7719   -2.7677   55.8053 H       1  ZINC000439870054    0.0600
     37 H37       -11.3547   -2.5799   56.5976 H       1  ZINC000439870054    0.0900
     38 H38       -11.1961   -2.2959   54.8476 H       1  ZINC000439870054    0.0700
     39 H39        -8.1956   -2.4477   59.7079 H       1  ZINC000439870054    0.1100
     40 H40        -7.5311   -0.9527   59.0065 H       1  ZINC000439870054    0.1200
     41 H41       -10.8140    0.0206   59.2051 H       1  ZINC000439870054    0.1800
     42 H42       -10.3583    1.9794   64.3234 H       1  ZINC000439870054    0.1500
     43 H43        -9.4142    2.0657   66.6806 H       1  ZINC000439870054    0.1600
     44 H44        -9.4947    1.4935   57.4773 H       1  ZINC000439870054    0.0900
     45 H45        -8.2191    0.6330   58.3736 H       1  ZINC000439870054    0.1200
     46 H46        -7.4710    1.9149   56.2622 H       1  ZINC000439870054    0.1100
     47 H47        -6.9617    0.2119   56.3754 H       1  ZINC000439870054    0.0900
@<TRIPOS>BOND
     1     1     2    1
     2     1    29    1
     3     1    30    1
     4     1    31    1
     5     2     3    1
     6     2     4    1
     7     2    32    1
     8     3    33    1
     9     3    34    1
    10     3    35    1
    11     4    28    1
    12     4     5    2
    13     5     6    1
    14     6     7    2
    15     7    28    1
    16     7     8    1
    17     8     9    1
    18     8    10    1
    19     8    11    1
    20    10    36    1
    21    10    37    1
    22    10    38    1
    23    11    12   am
    24    11    26    1
    25    12    13    2
    26    12    14    1
    27    14    15    1
    28    14    39    1
    29    14    40    1
    30    15    25    1
    31    15    16    2
    32    16    17    1
    33    16    41    1
    34    17    18    1
    35    18    19    1
    36    18    25    2
    37    19    24    1
    38    19    20    2
    39    20    21    1
    40    20    42    1
    41    21    22    2
    42    21    43    1
    43    22    23    1
    44    22    24    1
    45    26    27    1
    46    26    44    1
    47    26    45    1
    48    27    28    1
    49    27    46    1
    50    27    47    1
@<TRIPOS>SUBSTRUCTURE
     1 ZINC000439870054        1 TEMP              0 ****  ****    0 ROOT


##########                                Name:    ZINC001573443776
##########                DOCK_Rotatable_Bonds:                   8
##########                         Heavy_Atoms:                  28
##########                    Molecular_Weight:             386.457
##########                DOCK_Rotatable_Bonds:                   8
##########                       Formal_Charge:          0.00999954
##########                     HBond_Acceptors:                  10
##########                        HBond_Donors:                   3
##########                         Heavy_Atoms:                  28
##########                          Grid_Score:          -35.251305
##########                     Grid_vdw_energy:          -35.179951
##########                      Grid_es_energy:           -0.071353
##########           Internal_energy_repulsive:           30.353828

@<TRIPOS>MOLECULE
ZINC001573443776
 54 56 1 0 0
SMALL
USER_CHARGES


@<TRIPOS>ATOM
      1 C1        -14.4419   -2.6353   60.2894 C.3     1  ZINC001573443776   -0.1800
      2 C2        -13.8987   -3.1354   58.9756 C.2     1  ZINC001573443776    0.5100
      3 O3        -14.5034   -3.9820   58.3522 O.2     1  ZINC001573443776   -0.5400
      4 N4        -12.7409   -2.6419   58.4936 N.am    1  ZINC001573443776   -0.6100
      5 C5        -12.1987   -3.1195   57.2143 C.3     1  ZINC001573443776    0.1100
      6 C6        -10.7550   -3.5832   57.4330 C.3     1  ZINC001573443776   -0.1300
      7 C7         -9.9506   -2.4492   58.0725 C.3     1  ZINC001573443776   -0.1000
      8 C8        -10.5559   -2.0964   59.4331 C.3     1  ZINC001573443776   -0.1200
      9 H9        -10.5504   -2.9784   60.0736 H       1  ZINC001573443776    0.1000
     10 C10        -9.7434   -1.0024   60.0767 C.2     1  ZINC001573443776    0.5200
     11 O11        -8.7103   -1.2726   60.6516 O.2     1  ZINC001573443776   -0.5300
     12 N12       -10.1650    0.2762   60.0133 N.am    1  ZINC001573443776   -0.7300
     13 C13        -9.3742    1.3398   60.6375 C.3     1  ZINC001573443776    0.1100
     14 C14        -8.9624    2.3600   59.5742 C.3     1  ZINC001573443776    0.1400
     15 H15        -9.7310    2.4114   58.8031 H       1  ZINC001573443776    0.0900
     16 C16        -8.7985    3.7357   60.2236 C.3     1  ZINC001573443776   -0.1700
     17 N17        -7.6918    1.9504   58.9707 N.pl3   1  ZINC001573443776   -0.7200
     18 C18        -7.5704    1.8789   57.5887 C.ar    1  ZINC001573443776    0.4300
     19 C19        -6.4684    2.4570   56.9650 C.ar    1  ZINC001573443776   -0.2500
     20 C20        -6.3550    2.3811   55.5906 C.ar    1  ZINC001573443776    0.0100
     21 C21        -7.3600    1.7213   54.8753 C.ar    1  ZINC001573443776   -0.1400
     22 C22        -7.2835    1.6126   53.3970 C.2     1  ZINC001573443776    0.2400
     23 N23        -6.7601    0.6189   52.7066 N.2     1  ZINC001573443776   -0.3000
     24 N24        -6.8882    0.8979   51.4550 N.pl3   1  ZINC001573443776   -0.2300
     25 N25        -7.4761    2.0363   51.3304 N.2     1  ZINC001573443776   -0.0500
     26 N26        -7.7386    2.5028   52.5039 N.2     1  ZINC001573443776   -0.2700
     27 C27        -8.4321    1.1678   55.5687 C.ar    1  ZINC001573443776    0.2300
     28 C28        -9.5218    0.4543   54.8107 C.3     1  ZINC001573443776   -0.1200
     29 N29        -8.5021    1.2569   56.8817 N.ar    1  ZINC001573443776   -0.5400
     30 C30       -12.0001   -1.6118   59.2343 C.3     1  ZINC001573443776    0.1200
     31 H31       -14.1205   -3.2994   61.0918 H       1  ZINC001573443776    0.0900
     32 H32       -14.0673   -1.6295   60.4782 H       1  ZINC001573443776    0.0800
     33 H33       -15.5309   -2.6158   60.2483 H       1  ZINC001573443776    0.1000
     34 H34       -12.7993   -3.9535   56.8514 H       1  ZINC001573443776    0.1000
     35 H35       -12.2157   -2.3096   56.4850 H       1  ZINC001573443776    0.0700
     36 H36       -10.7477   -4.4513   58.0922 H       1  ZINC001573443776    0.0700
     37 H37       -10.3094   -3.8499   56.4747 H       1  ZINC001573443776    0.0800
     38 H38        -8.9169   -2.7681   58.2067 H       1  ZINC001573443776    0.0800
     39 H39        -9.9790   -1.5734   57.4243 H       1  ZINC001573443776    0.0700
     40 H40       -10.9918    0.4921   59.5545 H       1  ZINC001573443776    0.4000
     41 H41        -9.9711    1.8345   61.4037 H       1  ZINC001573443776    0.0900
     42 H42        -8.4822    0.9098   61.0932 H       1  ZINC001573443776    0.0800
     43 H43        -9.7438    4.0403   60.6726 H       1  ZINC001573443776    0.0700
     44 H44        -8.0298    3.6842   60.9947 H       1  ZINC001573443776    0.0700
     45 H45        -8.5052    4.4624   59.4661 H       1  ZINC001573443776    0.0700
     46 H46        -6.9354    1.7291   59.5361 H       1  ZINC001573443776    0.4100
     47 H47        -5.7113    2.9591   57.5488 H       1  ZINC001573443776    0.1400
     48 H48        -5.5108    2.8210   55.0805 H       1  ZINC001573443776    0.1400
     49 H49        -6.5884    0.3379   50.7218 H       1  ZINC001573443776    0.4800
     50 H50        -9.2690   -0.6021   54.7193 H       1  ZINC001573443776    0.0800
     51 H51       -10.4649    0.5570   55.3474 H       1  ZINC001573443776    0.0800
     52 H52        -9.6196    0.8917   53.8172 H       1  ZINC001573443776    0.1100
     53 H53       -11.9982   -0.6789   58.6705 H       1  ZINC001573443776    0.0800
     54 H54       -12.4693   -1.4532   60.2053 H       1  ZINC001573443776    0.0900
@<TRIPOS>BOND
     1     1     2    1
     2     1    31    1
     3     1    32    1
     4     1    33    1
     5     2     3    2
     6     2     4   am
     7     4    30    1
     8     4     5    1
     9     5     6    1
    10     5    34    1
    11     5    35    1
    12     6     7    1
    13     6    36    1
    14     6    37    1
    15     7     8    1
    16     7    38    1
    17     7    39    1
    18     8     9    1
    19     8    10    1
    20     8    30    1
    21    10    11    2
    22    10    12   am
    23    12    13    1
    24    12    40    1
    25    13    14    1
    26    13    41    1
    27    13    42    1
    28    14    15    1
    29    14    16    1
    30    14    17    1
    31    16    43    1
    32    16    44    1
    33    16    45    1
    34    17    18    1
    35    17    46    1
    36    18    29   ar
    37    18    19   ar
    38    19    20   ar
    39    19    47    1
    40    20    21   ar
    41    20    48    1
    42    21    22    1
    43    21    27   ar
    44    22    26    1
    45    22    23    2
    46    23    24    1
    47    24    25    1
    48    24    49    1
    49    25    26    2
    50    27    28    1
    51    27    29   ar
    52    28    50    1
    53    28    51    1
    54    28    52    1
    55    30    53    1
    56    30    54    1
@<TRIPOS>SUBSTRUCTURE
     1 ZINC001573443776        1 TEMP              0 ****  ****    0 ROOT


##########                                Name:    ZINC000637608314
##########                DOCK_Rotatable_Bonds:                   9
##########                         Heavy_Atoms:                  28
##########                    Molecular_Weight:             387.479
##########                DOCK_Rotatable_Bonds:                   9
##########                       Formal_Charge:           0.0499991
##########                     HBond_Acceptors:                   7
##########                        HBond_Donors:                   2
##########                         Heavy_Atoms:                  28
##########                          Grid_Score:          -35.159184
##########                     Grid_vdw_energy:          -35.087879
##########                      Grid_es_energy:           -0.071303
##########           Internal_energy_repulsive:           27.311382

@<TRIPOS>MOLECULE
ZINC000637608314
 57 59 1 0 0
SMALL
USER_CHARGES


@<TRIPOS>ATOM
      1 C1         -5.0113    2.3347   51.4906 C.3     1  ZINC000637608314   -0.1400
      2 C2         -6.2437    2.9137   52.1884 C.3     1  ZINC000637608314   -0.0400
      3 C3         -5.8196    3.5930   53.4921 C.3     1  ZINC000637608314   -0.1500
      4 C4         -6.9128    3.9406   51.2726 C.3     1  ZINC000637608314   -0.1500
      5 C5         -7.2162    1.8037   52.4936 C.2     1  ZINC000637608314    0.1900
      6 C6         -8.3143    2.0623   53.2414 C.2     1  ZINC000637608314   -0.2400
      7 C7         -9.2232    1.0343   53.5289 C.2     1  ZINC000637608314    0.0200
      8 C8         -8.9857   -0.2196   53.0476 C.2     1  ZINC000637608314   -0.2400
      9 C9         -9.9468   -1.3426   53.3415 C.3     1  ZINC000637608314    0.2100
     10 N10       -10.5460   -1.1394   54.6628 N.am    1  ZINC000637608314   -0.7300
     11 C11       -10.6387   -2.1699   55.5264 C.2     1  ZINC000637608314    0.7100
     12 O12       -10.2264   -3.2686   55.2084 O.2     1  ZINC000637608314   -0.5900
     13 N13       -11.1886   -1.9826   56.7426 N.am    1  ZINC000637608314   -0.6200
     14 C14       -11.2878   -3.1023   57.6820 C.3     1  ZINC000637608314    0.2000
     15 C15       -12.6400   -3.0819   58.3469 C.2     1  ZINC000637608314   -0.0400
     16 C16       -13.7621   -3.6459   57.8652 C.2     1  ZINC000637608314   -0.1900
     17 C17       -14.7868   -3.3860   58.8039 C.2     1  ZINC000637608314   -0.2200
     18 C18       -14.2296   -2.6787   59.8033 C.2     1  ZINC000637608314   -0.0300
     19 O19       -12.9278   -2.5025   59.5238 O.3     1  ZINC000637608314   -0.1700
     20 C20       -11.6871   -0.6592   57.1250 C.3     1  ZINC000637608314    0.1300
     21 C21       -10.5874    0.1062   57.8639 C.3     1  ZINC000637608314    0.0700
     22 H22        -9.7131    0.2092   57.2212 H       1  ZINC000637608314    0.0900
     23 C23       -10.2024   -0.6468   59.1553 C.3     1  ZINC000637608314   -0.1500
     24 C24        -9.9925    0.5151   60.1642 C.3     1  ZINC000637608314   -0.1600
     25 C25       -11.0607    1.5255   59.6755 C.3     1  ZINC000637608314    0.0500
     26 O26       -11.0675    1.4015   58.2426 O.3     1  ZINC000637608314   -0.3800
     27 C27        -7.8358   -0.4533   52.2743 C.2     1  ZINC000637608314    0.5300
     28 O28        -7.6114   -1.5706   51.8369 O.2     1  ZINC000637608314   -0.5400
     29 N29        -6.9844    0.5562   52.0106 N.am    1  ZINC000637608314   -0.6000
     30 H30        -4.5345    1.6032   52.1431 H       1  ZINC000637608314    0.0700
     31 H31        -5.3135    1.8509   50.5619 H       1  ZINC000637608314    0.0700
     32 H32        -4.3080    3.1376   51.2699 H       1  ZINC000637608314    0.0700
     33 H33        -5.1163    4.3959   53.2714 H       1  ZINC000637608314    0.0700
     34 H34        -6.6976    4.0056   53.9892 H       1  ZINC000637608314    0.0600
     35 H35        -5.3428    2.8615   54.1446 H       1  ZINC000637608314    0.0700
     36 H36        -7.2151    3.4566   50.3438 H       1  ZINC000637608314    0.0700
     37 H37        -7.7908    4.3531   51.7697 H       1  ZINC000637608314    0.0600
     38 H38        -6.2095    4.7435   51.0518 H       1  ZINC000637608314    0.0700
     39 H39        -8.4900    3.0597   53.6166 H       1  ZINC000637608314    0.1500
     40 H40       -10.1014    1.2331   54.1254 H       1  ZINC000637608314    0.1400
     41 H41       -10.7314   -1.3566   52.5850 H       1  ZINC000637608314    0.0800
     42 H42        -9.4115   -2.2920   53.3275 H       1  ZINC000637608314    0.0800
     43 H43       -10.8761   -0.2631   54.9161 H       1  ZINC000637608314    0.4000
     44 H44       -11.1622   -4.0413   57.1428 H       1  ZINC000637608314    0.1200
     45 H45       -10.5091   -3.0114   58.4393 H       1  ZINC000637608314    0.0900
     46 H46       -13.8614   -4.1920   56.9387 H       1  ZINC000637608314    0.1500
     47 H47       -15.8190   -3.6956   58.7323 H       1  ZINC000637608314    0.1500
     48 H48       -14.7413   -2.3173   60.6830 H       1  ZINC000637608314    0.2000
     49 H49       -11.9757   -0.1072   56.2305 H       1  ZINC000637608314    0.0800
     50 H50       -12.5528   -0.7717   57.7776 H       1  ZINC000637608314    0.1000
     51 H51       -11.0123   -1.3005   59.4794 H       1  ZINC000637608314    0.0800
     52 H52        -9.2800   -1.2105   59.0154 H       1  ZINC000637608314    0.0900
     53 H53       -10.1962    0.1909   61.1848 H       1  ZINC000637608314    0.0800
     54 H54        -8.9891    0.9325   60.0795 H       1  ZINC000637608314    0.0800
     55 H55       -12.0386    1.2687   60.0828 H       1  ZINC000637608314    0.0600
     56 H56       -10.7835    2.5390   59.9655 H       1  ZINC000637608314    0.0800
     57 H57        -6.1927    0.3885   51.4759 H       1  ZINC000637608314    0.4100
@<TRIPOS>BOND
     1     1     2    1
     2     1    30    1
     3     1    31    1
     4     1    32    1
     5     2     3    1
     6     2     4    1
     7     2     5    1
     8     3    33    1
     9     3    34    1
    10     3    35    1
    11     4    36    1
    12     4    37    1
    13     4    38    1
    14     5    29    1
    15     5     6    2
    16     6     7    1
    17     6    39    1
    18     7     8    2
    19     7    40    1
    20     8     9    1
    21     8    27    1
    22     9    10    1
    23     9    41    1
    24     9    42    1
    25    10    11   am
    26    10    43    1
    27    11    12    2
    28    11    13   am
    29    13    14    1
    30    13    20    1
    31    14    15    1
    32    14    44    1
    33    14    45    1
    34    15    19    1
    35    15    16    2
    36    16    17    1
    37    16    46    1
    38    17    18    2
    39    17    47    1
    40    18    19    1
    41    18    48    1
    42    20    21    1
    43    20    49    1
    44    20    50    1
    45    21    22    1
    46    21    26    1
    47    21    23    1
    48    23    24    1
    49    23    51    1
    50    23    52    1
    51    24    25    1
    52    24    53    1
    53    24    54    1
    54    25    26    1
    55    25    55    1
    56    25    56    1
    57    27    28    2
    58    27    29   am
    59    29    57    1
@<TRIPOS>SUBSTRUCTURE
     1 ZINC000637608314        1 TEMP              0 ****  ****    0 ROOT


##########                                Name:    ZINC001191196975
##########                DOCK_Rotatable_Bonds:                  14
##########                         Heavy_Atoms:                  24
##########                    Molecular_Weight:             339.438
##########                DOCK_Rotatable_Bonds:                  14
##########                       Formal_Charge:          0.00999969
##########                     HBond_Acceptors:                   8
##########                        HBond_Donors:                   4
##########                         Heavy_Atoms:                  24
##########                          Grid_Score:          -34.965343
##########                     Grid_vdw_energy:          -34.814831
##########                      Grid_es_energy:           -0.150511
##########           Internal_energy_repulsive:           13.304155

@<TRIPOS>MOLECULE
ZINC001191196975
 53 53 1 0 0
SMALL
USER_CHARGES


@<TRIPOS>ATOM
      1 C1         -8.0952    0.4157   53.3036 C.2     1  ZINC001191196975   -0.1600
      2 C2         -8.9026   -0.1211   54.1844 C.2     1  ZINC001191196975   -0.1800
      3 C3         -9.7588   -1.3007   53.8016 C.3     1  ZINC001191196975    0.1500
      4 N4         -9.9518   -2.1637   54.9695 N.am    1  ZINC001191196975   -0.7300
      5 C5        -11.0192   -1.9825   55.7721 C.2     1  ZINC001191196975    0.5100
      6 O6        -11.8206   -1.1061   55.5267 O.2     1  ZINC001191196975   -0.5200
      7 C7        -11.2167   -2.8691   56.9747 C.3     1  ZINC001191196975    0.0300
      8 N8        -12.6538   -3.0694   57.2046 N.3     1  ZINC001191196975   -0.5100
      9 C9        -13.0673   -4.4215   56.8060 C.3     1  ZINC001191196975    0.0200
     10 C10       -13.0048   -2.8032   58.6061 C.3     1  ZINC001191196975    0.0700
     11 H11       -12.3697   -3.3765   59.2813 H       1  ZINC001191196975    0.0600
     12 C12       -14.5052   -3.0980   58.8691 C.3     1  ZINC001191196975   -0.1200
     13 C13       -14.8361   -2.1717   60.0582 C.3     1  ZINC001191196975    0.1000
     14 N14       -13.8390   -1.0913   60.0606 N.am    1  ZINC001191196975   -0.6200
     15 C15       -13.7706   -0.0874   60.9572 C.2     1  ZINC001191196975    0.5300
     16 O16       -14.5776   -0.0251   61.8605 O.2     1  ZINC001191196975   -0.5400
     17 C17       -12.6915    0.9576   60.8376 C.3     1  ZINC001191196975   -0.1300
     18 C18       -11.4450    0.4924   61.5931 C.3     1  ZINC001191196975   -0.1000
     19 C19       -10.3131    1.4991   61.3783 C.3     1  ZINC001191196975   -0.1300
     20 C20        -9.0127    0.9350   61.9543 C.3     1  ZINC001191196975    0.1400
     21 N21        -9.1747    0.7044   63.3918 N.am    1  ZINC001191196975   -0.7500
     22 C22        -8.3908   -0.1918   64.0232 C.2     1  ZINC001191196975    0.7000
     23 N23        -8.5388   -0.4028   65.3461 N.am    1  ZINC001191196975   -0.8700
     24 O24        -7.5500   -0.8100   63.3993 O.2     1  ZINC001191196975   -0.5900
     25 C25       -12.9247   -1.2885   58.9204 C.3     1  ZINC001191196975    0.1100
     26 H26        -8.0432    0.0128   52.3028 H       1  ZINC001191196975    0.1000
     27 H27        -7.4850    1.2638   53.5767 H       1  ZINC001191196975    0.1000
     28 H28        -8.9547    0.2817   55.1852 H       1  ZINC001191196975    0.1200
     29 H29       -10.7270   -0.9471   53.4471 H       1  ZINC001191196975    0.0800
     30 H30        -9.2661   -1.8654   53.0100 H       1  ZINC001191196975    0.0700
     31 H31        -9.3114   -2.8654   55.1652 H       1  ZINC001191196975    0.4000
     32 H32       -10.7393   -3.8329   56.7979 H       1  ZINC001191196975    0.0700
     33 H33       -10.7709   -2.3980   57.8507 H       1  ZINC001191196975    0.1100
     34 H34       -12.4385   -5.1566   57.3082 H       1  ZINC001191196975    0.0200
     35 H35       -14.1082   -4.5808   57.0874 H       1  ZINC001191196975    0.0700
     36 H36       -12.9621   -4.5301   55.7265 H       1  ZINC001191196975    0.0900
     37 H37       -15.1077   -2.8384   57.9986 H       1  ZINC001191196975    0.0900
     38 H38       -14.6508   -4.1432   59.1423 H       1  ZINC001191196975    0.0800
     39 H39       -15.8353   -1.7537   59.9357 H       1  ZINC001191196975    0.0700
     40 H40       -14.7782   -2.7316   60.9917 H       1  ZINC001191196975    0.0700
     41 H41       -12.4447    1.1062   59.7863 H       1  ZINC001191196975    0.0900
     42 H42       -13.0456    1.8961   61.2639 H       1  ZINC001191196975    0.0900
     43 H43       -11.6707    0.4210   62.6571 H       1  ZINC001191196975    0.0800
     44 H44       -11.1377   -0.4848   61.2205 H       1  ZINC001191196975    0.0800
     45 H45       -10.1881    1.6831   60.3112 H       1  ZINC001191196975    0.0700
     46 H46       -10.5580    2.4342   61.8820 H       1  ZINC001191196975    0.0700
     47 H47        -8.7747   -0.0067   61.4598 H       1  ZINC001191196975    0.0700
     48 H48        -8.2035    1.6466   61.7894 H       1  ZINC001191196975    0.0700
     49 H49        -9.8463    1.1968   63.8894 H       1  ZINC001191196975    0.4000
     50 H50        -7.9738   -1.0470   65.8007 H       1  ZINC001191196975    0.4000
     51 H51        -9.2105    0.0896   65.8435 H       1  ZINC001191196975    0.4200
     52 H52       -11.9077   -1.0107   59.1972 H       1  ZINC001191196975    0.0800
     53 H53       -13.2577   -0.7054   58.0618 H       1  ZINC001191196975    0.0800
@<TRIPOS>BOND
     1     1     2    2
     2     1    26    1
     3     1    27    1
     4     2     3    1
     5     2    28    1
     6     3     4    1
     7     3    29    1
     8     3    30    1
     9     4     5   am
    10     4    31    1
    11     5     6    2
    12     5     7    1
    13     7     8    1
    14     7    32    1
    15     7    33    1
    16     8     9    1
    17     8    10    1
    18     9    34    1
    19     9    35    1
    20     9    36    1
    21    10    11    1
    22    10    25    1
    23    10    12    1
    24    12    13    1
    25    12    37    1
    26    12    38    1
    27    13    14    1
    28    13    39    1
    29    13    40    1
    30    14    15   am
    31    14    25    1
    32    15    16    2
    33    15    17    1
    34    17    18    1
    35    17    41    1
    36    17    42    1
    37    18    19    1
    38    18    43    1
    39    18    44    1
    40    19    20    1
    41    19    45    1
    42    19    46    1
    43    20    21    1
    44    20    47    1
    45    20    48    1
    46    21    22   am
    47    21    49    1
    48    22    23   am
    49    22    24    2
    50    23    50    1
    51    23    51    1
    52    25    52    1
    53    25    53    1
@<TRIPOS>SUBSTRUCTURE
     1 ZINC001191196975        1 TEMP              0 ****  ****    0 ROOT


##########                                Name:    ZINC000572257265
##########                DOCK_Rotatable_Bonds:                  11
##########                         Heavy_Atoms:                  24
##########                    Molecular_Weight:             393.509
##########                DOCK_Rotatable_Bonds:                  11
##########                       Formal_Charge:          -0.0100002
##########                     HBond_Acceptors:                  11
##########                        HBond_Donors:                   3
##########                         Heavy_Atoms:                  24
##########                          Grid_Score:          -34.905952
##########                     Grid_vdw_energy:          -32.026451
##########                      Grid_es_energy:           -2.879502
##########           Internal_energy_repulsive:            7.063371

@<TRIPOS>MOLECULE
ZINC000572257265
 43 43 1 0 0
SMALL
USER_CHARGES


@<TRIPOS>ATOM
      1 C1         -6.8993    1.7477   55.0424 C.3     1  ZINC000572257265   -0.1300
      2 S2         -8.0805    0.7154   54.1315 S.3     1  ZINC000572257265   -0.2200
      3 C3         -9.2143    0.1502   55.4299 C.3     1  ZINC000572257265   -0.1300
      4 C4        -10.2712   -0.7715   54.8181 C.3     1  ZINC000572257265    0.1500
      5 C5        -11.2044    0.0462   53.9228 C.3     1  ZINC000572257265   -0.1500
      6 O6         -9.6283   -1.7822   54.0389 O.3     1  ZINC000572257265   -0.5400
      7 C7        -11.0833   -1.4288   55.9359 C.3     1  ZINC000572257265    0.0900
      8 N8        -10.4375   -2.6809   56.3372 N.am    1  ZINC000572257265   -1.1100
      9 S9        -10.8461   -3.4007   57.7716 S.o2    1  ZINC000572257265    2.6900
     10 O10       -12.2594   -3.5478   57.7585 O.2     1  ZINC000572257265   -0.9400
     11 O11        -9.9525   -4.4925   57.9415 O.2     1  ZINC000572257265   -0.9500
     12 C12       -10.4774   -2.2515   59.0553 C.ar    1  ZINC000572257265   -0.6300
     13 C13        -9.1684   -2.0587   59.4554 C.ar    1  ZINC000572257265   -0.0400
     14 C14        -8.8790   -1.1571   60.4626 C.ar    1  ZINC000572257265   -0.0400
     15 C15        -9.8989   -0.4480   61.0694 C.ar    1  ZINC000572257265   -0.6300
     16 S16        -9.5302    0.7007   62.3536 S.o2    1  ZINC000572257265    2.7000
     17 O17       -10.7241    1.4338   62.5911 O.2     1  ZINC000572257265   -0.9400
     18 O18        -8.8538   -0.0323   63.3657 O.2     1  ZINC000572257265   -0.9400
     19 N19        -8.4319    1.7804   61.7450 N.am    1  ZINC000572257265   -1.1200
     20 C20        -8.7768    2.5976   60.5791 C.3     1  ZINC000572257265    0.2200
     21 C21        -7.9183    2.2206   59.4443 C.1     1  ZINC000572257265    0.1900
     22 N22        -7.2559    1.9297   58.5685 N.1     1  ZINC000572257265   -0.3900
     23 C23       -11.2078   -0.6399   60.6684 C.ar    1  ZINC000572257265   -0.0400
     24 C24       -11.4966   -1.5387   59.6586 C.ar    1  ZINC000572257265   -0.0400
     25 H25        -6.4001    1.1453   55.8015 H       1  ZINC000572257265    0.0800
     26 H26        -6.1579    2.1481   54.3509 H       1  ZINC000572257265    0.1000
     27 H27        -7.4299    2.5701   55.5224 H       1  ZINC000572257265    0.0800
     28 H28        -8.6538   -0.3939   56.1900 H       1  ZINC000572257265    0.0900
     29 H29        -9.7030    1.0113   55.8856 H       1  ZINC000572257265    0.0900
     30 H30       -10.6258    0.5144   53.1265 H       1  ZINC000572257265    0.0800
     31 H31       -11.9574   -0.6104   53.4870 H       1  ZINC000572257265    0.0700
     32 H32       -11.6948    0.8172   54.5172 H       1  ZINC000572257265    0.0800
     33 H33       -10.2187   -2.4917   53.7507 H       1  ZINC000572257265    0.3800
     34 H34       -11.1346   -0.7558   56.7917 H       1  ZINC000572257265    0.0900
     35 H35       -12.0912   -1.6383   55.5776 H       1  ZINC000572257265    0.0800
     36 H36        -9.7705   -3.0885   55.7628 H       1  ZINC000572257265    0.4300
     37 H37        -8.3716   -2.6126   58.9814 H       1  ZINC000572257265    0.1500
     38 H38        -7.8564   -1.0070   60.7757 H       1  ZINC000572257265    0.1500
     39 H39        -7.5602    1.8717   62.1605 H       1  ZINC000572257265    0.4300
     40 H40        -9.8213    2.4317   60.3153 H       1  ZINC000572257265    0.1100
     41 H41        -8.6247    3.6506   60.8157 H       1  ZINC000572257265    0.1300
     42 H42       -12.0044   -0.0856   61.1422 H       1  ZINC000572257265    0.1600
     43 H43       -12.5193   -1.6885   59.3453 H       1  ZINC000572257265    0.1500
@<TRIPOS>BOND
     1     1     2    1
     2     1    25    1
     3     1    26    1
     4     1    27    1
     5     2     3    1
     6     3     4    1
     7     3    28    1
     8     3    29    1
     9     4     5    1
    10     4     6    1
    11     4     7    1
    12     5    30    1
    13     5    31    1
    14     5    32    1
    15     6    33    1
    16     7     8    1
    17     7    34    1
    18     7    35    1
    19     8     9   am
    20     8    36    1
    21     9    10    2
    22     9    11    2
    23     9    12    1
    24    12    24   ar
    25    12    13   ar
    26    13    14   ar
    27    13    37    1
    28    14    15   ar
    29    14    38    1
    30    15    16    1
    31    15    23   ar
    32    16    17    2
    33    16    18    2
    34    16    19   am
    35    19    20    1
    36    19    39    1
    37    20    21    1
    38    20    40    1
    39    20    41    1
    40    21    22    3
    41    23    24   ar
    42    23    42    1
    43    24    43    1
@<TRIPOS>SUBSTRUCTURE
     1 ZINC000572257265        1 TEMP              0 ****  ****    0 ROOT


##########                                Name:    ZINC001060578637
##########                DOCK_Rotatable_Bonds:                  10
##########                         Heavy_Atoms:                  25
##########                    Molecular_Weight:             345.401
##########                DOCK_Rotatable_Bonds:                  10
##########                       Formal_Charge:          -0.0400001
##########                     HBond_Acceptors:                   8
##########                        HBond_Donors:                   3
##########                         Heavy_Atoms:                  25
##########                          Grid_Score:          -34.861893
##########                     Grid_vdw_energy:          -32.224316
##########                      Grid_es_energy:           -2.637576
##########           Internal_energy_repulsive:           11.971360

@<TRIPOS>MOLECULE
ZINC001060578637
 48 49 1 0 0
SMALL
USER_CHARGES


@<TRIPOS>ATOM
      1 C1         -6.8608    2.1823   55.1080 C.3     1  ZINC001060578637   -0.1500
      2 C2         -6.2913    2.4615   53.7158 C.3     1  ZINC001060578637   -0.1300
      3 C3         -6.6462    1.3054   52.7784 C.3     1  ZINC001060578637    0.0700
      4 H4         -6.1494    0.3966   53.1180 H       1  ZINC001060578637    0.0900
      5 O5         -6.2140    1.6175   51.4525 O.3     1  ZINC001060578637   -0.3600
      6 C6         -4.7950    1.7079   51.3098 C.3     1  ZINC001060578637    0.0300
      7 C7         -8.1383    1.0943   52.7836 C.2     1  ZINC001060578637    0.5000
      8 O8         -8.8721    1.9401   52.3178 O.2     1  ZINC001060578637   -0.5200
      9 N9         -8.6572   -0.0346   53.3061 N.am    1  ZINC001060578637   -0.7300
     10 C10       -10.1077   -0.2407   53.3098 C.3     1  ZINC001060578637    0.1600
     11 C11       -10.5229   -0.8663   54.6163 C.ar    1  ZINC001060578637   -0.1100
     12 C12       -10.0775   -2.1318   54.9492 C.ar    1  ZINC001060578637   -0.0900
     13 C13       -10.4585   -2.7057   56.1478 C.ar    1  ZINC001060578637   -0.1100
     14 C14       -11.2844   -2.0136   57.0137 C.ar    1  ZINC001060578637   -0.0900
     15 C15       -11.7001   -2.6393   58.3201 C.3     1  ZINC001060578637    0.1800
     16 H16       -11.1861   -3.5922   58.4463 H       1  ZINC001060578637    0.1000
     17 C17       -13.2122   -2.8722   58.3158 C.3     1  ZINC001060578637   -0.1600
     18 N18       -11.3471   -1.7440   59.4246 N.am    1  ZINC001060578637   -0.7000
     19 C19       -10.0614   -1.6251   59.8113 C.2     1  ZINC001060578637    0.6100
     20 O20        -9.1947   -2.2622   59.2443 O.2     1  ZINC001060578637   -0.5300
     21 C21        -9.7059   -0.7227   60.9218 C.2     1  ZINC001060578637    0.1200
     22 N22       -10.5112    0.1160   61.5379 N.2     1  ZINC001060578637   -0.2400
     23 N23        -9.8600    0.7396   62.4547 N.2     1  ZINC001060578637   -0.2900
     24 C24        -8.6136    0.3346   62.4722 C.2     1  ZINC001060578637    0.1900
     25 N25        -8.4747   -0.6018   61.5130 N.pl3   1  ZINC001060578637   -0.5500
     26 C26       -11.7286   -0.7475   56.6814 C.ar    1  ZINC001060578637   -0.1100
     27 C27       -11.3446   -0.1721   55.4847 C.ar    1  ZINC001060578637   -0.0900
     28 H28        -6.6347    3.0201   55.7677 H       1  ZINC001060578637    0.0600
     29 H29        -7.9411    2.0548   55.0399 H       1  ZINC001060578637    0.0500
     30 H30        -6.4121    1.2732   55.5085 H       1  ZINC001060578637    0.0600
     31 H31        -6.7166    3.3871   53.3281 H       1  ZINC001060578637    0.0800
     32 H32        -5.2074    2.5582   53.7791 H       1  ZINC001060578637    0.0800
     33 H33        -4.5448    1.8709   50.2615 H       1  ZINC001060578637    0.0900
     34 H34        -4.4223    2.5407   51.9061 H       1  ZINC001060578637    0.0500
     35 H35        -4.3356    0.7809   51.6530 H       1  ZINC001060578637    0.0400
     36 H36        -8.0703   -0.7104   53.6799 H       1  ZINC001060578637    0.4000
     37 H37       -10.6113    0.7184   53.1898 H       1  ZINC001060578637    0.0800
     38 H38       -10.3828   -0.9009   52.4872 H       1  ZINC001060578637    0.0800
     39 H39        -9.4322   -2.6725   54.2727 H       1  ZINC001060578637    0.1300
     40 H40       -10.1111   -3.6947   56.4075 H       1  ZINC001060578637    0.1300
     41 H41       -13.7262   -1.9193   58.1895 H       1  ZINC001060578637    0.0600
     42 H42       -13.4749   -3.5384   57.4940 H       1  ZINC001060578637    0.0700
     43 H43       -13.5129   -3.3247   59.2607 H       1  ZINC001060578637    0.0700
     44 H44       -12.0386   -1.2366   59.8777 H       1  ZINC001060578637    0.4100
     45 H45        -7.8387    0.6853   63.1379 H       1  ZINC001060578637    0.2300
     46 H46        -7.6668   -1.0873   61.2838 H       1  ZINC001060578637    0.4400
     47 H47       -12.3736   -0.2067   57.3582 H       1  ZINC001060578637    0.1300
     48 H48       -11.6918    0.8171   55.2251 H       1  ZINC001060578637    0.1300
@<TRIPOS>BOND
     1     1     2    1
     2     1    28    1
     3     1    29    1
     4     1    30    1
     5     2     3    1
     6     2    31    1
     7     2    32    1
     8     3     4    1
     9     3     5    1
    10     3     7    1
    11     5     6    1
    12     6    33    1
    13     6    34    1
    14     6    35    1
    15     7     8    2
    16     7     9   am
    17     9    10    1
    18     9    36    1
    19    10    11    1
    20    10    37    1
    21    10    38    1
    22    11    27   ar
    23    11    12   ar
    24    12    13   ar
    25    12    39    1
    26    13    14   ar
    27    13    40    1
    28    14    15    1
    29    14    26   ar
    30    15    16    1
    31    15    17    1
    32    15    18    1
    33    17    41    1
    34    17    42    1
    35    17    43    1
    36    18    19   am
    37    18    44    1
    38    19    20    2
    39    19    21    1
    40    21    25    1
    41    21    22    2
    42    22    23    1
    43    23    24    2
    44    24    25    1
    45    24    45    1
    46    25    46    1
    47    26    27   ar
    48    26    47    1
    49    27    48    1
@<TRIPOS>SUBSTRUCTURE
     1 ZINC001060578637        1 TEMP              0 ****  ****    0 ROOT


##########                                Name:    ZINC000279452407
##########                DOCK_Rotatable_Bonds:                   6
##########                         Heavy_Atoms:                  24
##########                    Molecular_Weight:              375.47
##########                DOCK_Rotatable_Bonds:                   6
##########                       Formal_Charge:          0.00999929
##########                     HBond_Acceptors:                  10
##########                        HBond_Donors:                   3
##########                         Heavy_Atoms:                  24
##########                          Grid_Score:          -34.823364
##########                     Grid_vdw_energy:          -30.805382
##########                      Grid_es_energy:           -4.017981
##########           Internal_energy_repulsive:           31.360060

@<TRIPOS>MOLECULE
ZINC000279452407
 45 47 1 0 0
SMALL
USER_CHARGES


@<TRIPOS>ATOM
      1 C1        -10.3195   -1.6465   60.3128 C.3     1  ZINC000279452407   -0.1600
      2 C2        -11.0046   -2.7144   59.4576 C.3     1  ZINC000279452407    0.0600
      3 H3        -11.6127   -3.3618   60.0895 H       1  ZINC000279452407    0.0700
      4 O4        -10.0151   -3.4958   58.7641 O.3     1  ZINC000279452407   -0.3700
      5 C5        -10.5799   -3.8516   57.4832 C.3     1  ZINC000279452407    0.0500
      6 C6        -11.3289   -2.5655   57.0464 C.3     1  ZINC000279452407   -0.1400
      7 C7        -11.8860   -2.0456   58.3926 C.3     1  ZINC000279452407    0.0700
      8 C8        -11.7440   -0.5273   58.4633 C.3     1  ZINC000279452407    0.1100
      9 N9        -12.4410   -0.0496   59.6695 N.am    1  ZINC000279452407   -0.6300
     10 C10       -11.8378    0.7901   60.5341 C.2     1  ZINC000279452407    0.7200
     11 O11       -12.4310    1.1728   61.5239 O.2     1  ZINC000279452407   -0.5800
     12 N12       -10.5769    1.2055   60.3014 N.am    1  ZINC000279452407   -0.7500
     13 C13        -9.9213    2.1182   61.2412 C.3     1  ZINC000279452407    0.2000
     14 C14        -9.4320    1.3420   62.4367 C.2     1  ZINC000279452407   -0.1700
     15 C15        -8.6104    0.2923   62.3883 C.2     1  ZINC000279452407   -0.1400
     16 C16        -8.2975   -0.2607   63.6181 C.2     1  ZINC000279452407    0.0100
     17 C17        -8.8650    0.3398   64.6652 C.2     1  ZINC000279452407   -0.7900
     18 S18        -8.6530   -0.1378   66.3480 S.o2    1  ZINC000279452407    2.7300
     19 N19        -7.4118    0.7700   66.9625 N.am    1  ZINC000279452407   -1.2500
     20 O20        -9.8282    0.2734   67.0329 O.2     1  ZINC000279452407   -0.9600
     21 O21        -8.1950   -1.4828   66.3286 O.2     1  ZINC000279452407   -0.9500
     22 S22        -9.8510    1.6863   64.1099 S.3     1  ZINC000279452407    0.2500
     23 C23       -13.8169   -0.5176   59.9010 C.3     1  ZINC000279452407    0.0700
     24 C24       -13.8356   -2.0463   59.7882 C.3     1  ZINC000279452407    0.0400
     25 O25       -13.2458   -2.4339   58.5437 O.3     1  ZINC000279452407   -0.3600
     26 H26       -11.0682   -1.1188   60.9035 H       1  ZINC000279452407    0.0700
     27 H27        -9.5995   -2.1214   60.9791 H       1  ZINC000279452407    0.0600
     28 H28        -9.8029   -0.9385   59.6647 H       1  ZINC000279452407    0.0800
     29 H29        -9.7918   -4.0971   56.7714 H       1  ZINC000279452407    0.1000
     30 H30       -11.2759   -4.6837   57.5887 H       1  ZINC000279452407    0.0700
     31 H31       -10.6405   -1.8454   56.6038 H       1  ZINC000279452407    0.1000
     32 H32       -12.1391   -2.8021   56.3568 H       1  ZINC000279452407    0.1000
     33 H33       -10.6888   -0.2602   58.5201 H       1  ZINC000279452407    0.1200
     34 H34       -12.1923   -0.0758   57.5783 H       1  ZINC000279452407    0.0800
     35 H35       -10.1036    0.9002   59.5116 H       1  ZINC000279452407    0.4000
     36 H36        -9.0759    2.6000   60.7501 H       1  ZINC000279452407    0.1000
     37 H37       -10.6328    2.8770   61.5670 H       1  ZINC000279452407    0.0900
     38 H38        -8.2192   -0.0969   61.4599 H       1  ZINC000279452407    0.1600
     39 H39        -7.6437   -1.1142   63.7218 H       1  ZINC000279452407    0.1600
     40 H40        -6.5286    0.7162   66.5651 H       1  ZINC000279452407    0.4200
     41 H41        -7.5681    1.3556   67.7199 H       1  ZINC000279452407    0.4200
     42 H42       -14.1422   -0.2198   60.8978 H       1  ZINC000279452407    0.0900
     43 H43       -14.4812   -0.0869   59.1518 H       1  ZINC000279452407    0.0900
     44 H44       -13.2666   -2.4789   60.6111 H       1  ZINC000279452407    0.0600
     45 H45       -14.8650   -2.4018   59.8297 H       1  ZINC000279452407    0.1100
@<TRIPOS>BOND
     1     1     2    1
     2     1    26    1
     3     1    27    1
     4     1    28    1
     5     2     3    1
     6     2     7    1
     7     2     4    1
     8     4     5    1
     9     5     6    1
    10     5    29    1
    11     5    30    1
    12     6     7    1
    13     6    31    1
    14     6    32    1
    15     7    25    1
    16     7     8    1
    17     8     9    1
    18     8    33    1
    19     8    34    1
    20     9    10   am
    21     9    23    1
    22    10    11    2
    23    10    12   am
    24    12    13    1
    25    12    35    1
    26    13    14    1
    27    13    36    1
    28    13    37    1
    29    14    22    1
    30    14    15    2
    31    15    16    1
    32    15    38    1
    33    16    17    2
    34    16    39    1
    35    17    18    1
    36    17    22    1
    37    18    19   am
    38    18    20    2
    39    18    21    2
    40    19    40    1
    41    19    41    1
    42    23    24    1
    43    23    42    1
    44    23    43    1
    45    24    25    1
    46    24    44    1
    47    24    45    1
@<TRIPOS>SUBSTRUCTURE
     1 ZINC000279452407        1 TEMP              0 ****  ****    0 ROOT


##########                                Name:    ZINC000011620562
##########                DOCK_Rotatable_Bonds:                   9
##########                         Heavy_Atoms:                  29
##########                    Molecular_Weight:             417.448
##########                DOCK_Rotatable_Bonds:                   9
##########                       Formal_Charge:           0.0299999
##########                     HBond_Acceptors:                  12
##########                        HBond_Donors:                   1
##########                         Heavy_Atoms:                  29
##########                          Grid_Score:          -34.817368
##########                     Grid_vdw_energy:          -33.556812
##########                      Grid_es_energy:           -1.260556
##########           Internal_energy_repulsive:            8.533887

@<TRIPOS>MOLECULE
ZINC000011620562
 48 50 1 0 0
SMALL
USER_CHARGES


@<TRIPOS>ATOM
      1 C1        -13.5920   -4.1726   57.2119 C.3     1  ZINC000011620562    0.0400
      2 O2        -13.3762   -3.3490   58.3881 O.3     1  ZINC000011620562   -0.3500
      3 C3        -14.4163   -3.1934   59.2223 C.2     1  ZINC000011620562    0.4600
      4 O4        -15.4464   -3.7922   59.0218 O.2     1  ZINC000011620562   -0.5000
      5 C5        -14.2992   -2.2718   60.4089 C.3     1  ZINC000011620562    0.1300
      6 N6        -13.1968   -1.3321   60.1903 N.am    1  ZINC000011620562   -0.7200
      7 C7        -13.1737   -0.1557   60.8478 C.2     1  ZINC000011620562    0.5400
      8 O8        -14.0648    0.1242   61.6213 O.2     1  ZINC000011620562   -0.5200
      9 C9        -12.0406    0.8118   60.6216 C.3     1  ZINC000011620562   -0.1600
     10 S10       -11.4470    0.6581   58.9187 S.3     1  ZINC000011620562    0.1400
     11 C11       -10.1520   -0.5141   59.1507 C.2     1  ZINC000011620562    0.2100
     12 N12        -9.8428   -1.1259   60.2740 N.2     1  ZINC000011620562   -0.3400
     13 N13        -8.8473   -1.9173   60.0957 N.2     1  ZINC000011620562   -0.0300
     14 N14        -8.4523   -1.8725   58.8695 N.2     1  ZINC000011620562   -0.0800
     15 N15        -9.2902   -0.9603   58.2045 N.pl3   1  ZINC000011620562   -0.2600
     16 C16        -9.2402   -0.5853   56.8481 C.2     1  ZINC000011620562   -0.1300
     17 C17        -9.7161   -1.3042   55.8063 C.2     1  ZINC000011620562    0.2500
     18 C18       -10.3924   -2.6478   55.8976 C.3     1  ZINC000011620562   -0.1100
     19 N19        -9.4788   -0.6033   54.6546 N.pl3   1  ZINC000011620562   -0.3700
     20 C20        -9.8389   -1.0301   53.3002 C.3     1  ZINC000011620562    0.0900
     21 N21        -8.8329    0.5926   54.9941 N.am    1  ZINC000011620562   -0.3600
     22 C22        -8.4185    1.5871   54.1025 C.ar    1  ZINC000011620562    0.1400
     23 C23        -9.3330    2.5148   53.6206 C.ar    1  ZINC000011620562   -0.1300
     24 C24        -8.9204    3.4960   52.7407 C.ar    1  ZINC000011620562   -0.1000
     25 C25        -7.5984    3.5555   52.3394 C.ar    1  ZINC000011620562   -0.1100
     26 C26        -6.6854    2.6332   52.8170 C.ar    1  ZINC000011620562   -0.1000
     27 C27        -7.0904    1.6529   53.7016 C.ar    1  ZINC000011620562   -0.1000
     28 C28        -8.6870    0.6163   56.3345 C.2     1  ZINC000011620562    0.5500
     29 O29        -8.1678    1.5045   56.9857 O.2     1  ZINC000011620562   -0.5000
     30 H30       -14.3901   -3.7412   56.6077 H       1  ZINC000011620562    0.0700
     31 H31       -12.6745   -4.2154   56.6250 H       1  ZINC000011620562    0.1100
     32 H32       -13.8734   -5.1796   57.5202 H       1  ZINC000011620562    0.0700
     33 H33       -15.2298   -1.7178   60.5320 H       1  ZINC000011620562    0.1200
     34 H34       -14.1040   -2.8584   61.3067 H       1  ZINC000011620562    0.1200
     35 H35       -12.4834   -1.5565   59.5726 H       1  ZINC000011620562    0.4200
     36 H36       -12.3918    1.8293   60.7935 H       1  ZINC000011620562    0.1400
     37 H37       -11.2274    0.5866   61.3116 H       1  ZINC000011620562    0.1400
     38 H38       -10.4419   -2.9596   56.9409 H       1  ZINC000011620562    0.1000
     39 H39       -11.4014   -2.5750   55.4918 H       1  ZINC000011620562    0.1000
     40 H40        -9.8230   -3.3807   55.3259 H       1  ZINC000011620562    0.1000
     41 H41       -10.2986   -2.0176   53.3406 H       1  ZINC000011620562    0.1100
     42 H42       -10.5438   -0.3185   52.8704 H       1  ZINC000011620562    0.0900
     43 H43        -8.9421   -1.0718   52.6820 H       1  ZINC000011620562    0.0900
     44 H44       -10.3658    2.4687   53.9334 H       1  ZINC000011620562    0.1300
     45 H45        -9.6311    4.2175   52.3653 H       1  ZINC000011620562    0.1300
     46 H46        -7.2783    4.3239   51.6512 H       1  ZINC000011620562    0.1300
     47 H47        -5.6539    2.6820   52.5010 H       1  ZINC000011620562    0.1400
     48 H48        -6.3768    0.9331   54.0745 H       1  ZINC000011620562    0.1400
@<TRIPOS>BOND
     1     1     2    1
     2     1    30    1
     3     1    31    1
     4     1    32    1
     5     2     3    1
     6     3     4    2
     7     3     5    1
     8     5     6    1
     9     5    33    1
    10     5    34    1
    11     6     7   am
    12     6    35    1
    13     7     8    2
    14     7     9    1
    15     9    10    1
    16     9    36    1
    17     9    37    1
    18    10    11    1
    19    11    15    1
    20    11    12    2
    21    12    13    1
    22    13    14    2
    23    14    15    1
    24    15    16    1
    25    16    28    1
    26    16    17    2
    27    17    18    1
    28    17    19    1
    29    18    38    1
    30    18    39    1
    31    18    40    1
    32    19    20    1
    33    19    21    1
    34    20    41    1
    35    20    42    1
    36    20    43    1
    37    21    22    1
    38    21    28   am
    39    22    27   ar
    40    22    23   ar
    41    23    24   ar
    42    23    44    1
    43    24    25   ar
    44    24    45    1
    45    25    26   ar
    46    25    46    1
    47    26    27   ar
    48    26    47    1
    49    27    48    1
    50    28    29    2
@<TRIPOS>SUBSTRUCTURE
     1 ZINC000011620562        1 TEMP              0 ****  ****    0 ROOT


##########                                Name:    ZINC000004598904
##########                DOCK_Rotatable_Bonds:                  13
##########                         Heavy_Atoms:                  30
##########                    Molecular_Weight:             412.442
##########                DOCK_Rotatable_Bonds:                  13
##########                       Formal_Charge:          -0.0300005
##########                     HBond_Acceptors:                   8
##########                        HBond_Donors:                   2
##########                         Heavy_Atoms:                  30
##########                          Grid_Score:          -34.492828
##########                     Grid_vdw_energy:          -36.042393
##########                      Grid_es_energy:            1.549565
##########           Internal_energy_repulsive:           25.541475

@<TRIPOS>MOLECULE
ZINC000004598904
 54 55 1 0 0
SMALL
USER_CHARGES


@<TRIPOS>ATOM
      1 C1          0.0283    1.5711   59.9403 C.3     1  ZINC000004598904   -0.1500
      2 C2         -0.6097    2.9455   60.1525 C.3     1  ZINC000004598904    0.0600
      3 O3         -1.6952    3.1266   59.2054 O.3     1  ZINC000004598904   -0.3500
      4 C4         -1.3806    3.0711   57.8963 C.2     1  ZINC000004598904    0.5100
      5 O5         -0.2305    2.8768   57.5556 O.2     1  ZINC000004598904   -0.5100
      6 C6         -2.4319    3.2462   56.8772 C.ar    1  ZINC000004598904   -0.1500
      7 C7         -3.7188    2.7500   57.1056 C.ar    1  ZINC000004598904   -0.0400
      8 C8         -4.6976    2.9153   56.1520 C.ar    1  ZINC000004598904   -0.1400
      9 C9         -4.4075    3.5753   54.9619 C.ar    1  ZINC000004598904    0.1800
     10 N10        -5.4015    3.7412   53.9986 N.am    1  ZINC000004598904   -0.6700
     11 C11        -5.2897    3.1298   52.8027 C.2     1  ZINC000004598904    0.5200
     12 O12        -4.3245    2.4352   52.5646 O.2     1  ZINC000004598904   -0.5100
     13 C13        -6.3643    3.3092   51.7614 C.3     1  ZINC000004598904   -0.1300
     14 C14        -6.6442    1.9676   51.0811 C.3     1  ZINC000004598904   -0.1300
     15 C15        -7.1700    0.9883   52.0988 C.2     1  ZINC000004598904    0.5200
     16 O16        -6.6213   -0.0826   52.2496 O.2     1  ZINC000004598904   -0.5100
     17 N17        -8.2499    1.3027   52.8414 N.am    1  ZINC000004598904   -0.6700
     18 C18        -8.7362    0.3967   53.7828 C.ar    1  ZINC000004598904    0.1800
     19 C19        -8.8155    0.7635   55.1228 C.ar    1  ZINC000004598904   -0.1400
     20 C20        -9.2953   -0.1284   56.0550 C.ar    1  ZINC000004598904   -0.0300
     21 C21        -9.7034   -1.4040   55.6541 C.ar    1  ZINC000004598904   -0.1500
     22 C22       -10.2183   -2.3621   56.6498 C.2     1  ZINC000004598904    0.5100
     23 O23       -10.3540   -3.5325   56.3531 O.2     1  ZINC000004598904   -0.5100
     24 O24       -10.5382   -1.9397   57.8887 O.3     1  ZINC000004598904   -0.3600
     25 C25       -11.4091   -2.7967   58.6730 C.3     1  ZINC000004598904    0.0600
     26 C26       -11.5168   -2.2481   60.0972 C.3     1  ZINC000004598904   -0.1500
     27 C27        -9.6227   -1.7690   54.3069 C.ar    1  ZINC000004598904   -0.0400
     28 C28        -9.1466   -0.8703   53.3794 C.ar    1  ZINC000004598904   -0.1600
     29 C29        -3.1278    4.0705   54.7311 C.ar    1  ZINC000004598904   -0.1600
     30 C30        -2.1455    3.9139   55.6826 C.ar    1  ZINC000004598904   -0.0300
     31 H31         0.4175    1.5042   58.9244 H       1  ZINC000004598904    0.0700
     32 H32         0.8432    1.4352   60.6514 H       1  ZINC000004598904    0.0800
     33 H33        -0.7214    0.7950   60.0941 H       1  ZINC000004598904    0.0700
     34 H34        -0.9990    3.0124   61.1685 H       1  ZINC000004598904    0.0700
     35 H35         0.1399    3.7217   59.9988 H       1  ZINC000004598904    0.0700
     36 H36        -3.9445    2.2373   58.0290 H       1  ZINC000004598904    0.1400
     37 H37        -5.6919    2.5318   56.3276 H       1  ZINC000004598904    0.1400
     38 H38        -6.1735    4.2968   54.1890 H       1  ZINC000004598904    0.4200
     39 H39        -7.2750    3.6720   52.2378 H       1  ZINC000004598904    0.1100
     40 H40        -6.0312    4.0318   51.0163 H       1  ZINC000004598904    0.1100
     41 H41        -7.3855    2.1070   50.2943 H       1  ZINC000004598904    0.1100
     42 H42        -5.7222    1.5808   50.6473 H       1  ZINC000004598904    0.1100
     43 H43        -8.6887    2.1593   52.7208 H       1  ZINC000004598904    0.4200
     44 H44        -8.5001    1.7492   55.4317 H       1  ZINC000004598904    0.1400
     45 H45        -9.3558    0.1568   57.0949 H       1  ZINC000004598904    0.1400
     46 H46       -12.3992   -2.8227   58.2179 H       1  ZINC000004598904    0.0700
     47 H47       -10.9963   -3.8050   58.7023 H       1  ZINC000004598904    0.0700
     48 H48       -12.1706   -2.8915   60.6860 H       1  ZINC000004598904    0.0800
     49 H49       -10.5267   -2.2222   60.5523 H       1  ZINC000004598904    0.0700
     50 H50       -11.9297   -1.2398   60.0679 H       1  ZINC000004598904    0.0700
     51 H51        -9.9368   -2.7537   53.9937 H       1  ZINC000004598904    0.1400
     52 H52        -9.0843   -1.1513   52.3385 H       1  ZINC000004598904    0.1400
     53 H53        -2.9061    4.5822   53.8063 H       1  ZINC000004598904    0.1400
     54 H54        -1.1525    4.2985   55.5029 H       1  ZINC000004598904    0.1400
@<TRIPOS>BOND
     1     1     2    1
     2     1    31    1
     3     1    32    1
     4     1    33    1
     5     2     3    1
     6     2    34    1
     7     2    35    1
     8     3     4    1
     9     4     5    2
    10     4     6    1
    11     6    30   ar
    12     6     7   ar
    13     7     8   ar
    14     7    36    1
    15     8     9   ar
    16     8    37    1
    17     9    10    1
    18     9    29   ar
    19    10    11   am
    20    10    38    1
    21    11    12    2
    22    11    13    1
    23    13    14    1
    24    13    39    1
    25    13    40    1
    26    14    15    1
    27    14    41    1
    28    14    42    1
    29    15    16    2
    30    15    17   am
    31    17    18    1
    32    17    43    1
    33    18    28   ar
    34    18    19   ar
    35    19    20   ar
    36    19    44    1
    37    20    21   ar
    38    20    45    1
    39    21    22    1
    40    21    27   ar
    41    22    23    2
    42    22    24    1
    43    24    25    1
    44    25    26    1
    45    25    46    1
    46    25    47    1
    47    26    48    1
    48    26    49    1
    49    26    50    1
    50    27    28   ar
    51    27    51    1
    52    28    52    1
    53    29    30   ar
    54    29    53    1
    55    30    54    1
@<TRIPOS>SUBSTRUCTURE
     1 ZINC000004598904        1 TEMP              0 ****  ****    0 ROOT


##########                                Name:    ZINC001596273020
##########                DOCK_Rotatable_Bonds:                  11
##########                         Heavy_Atoms:                  25
##########                    Molecular_Weight:             355.478
##########                DOCK_Rotatable_Bonds:                  11
##########                       Formal_Charge:          -0.0499996
##########                     HBond_Acceptors:                   7
##########                        HBond_Donors:                   2
##########                         Heavy_Atoms:                  25
##########                          Grid_Score:          -34.438721
##########                     Grid_vdw_energy:          -29.137293
##########                      Grid_es_energy:           -5.301428
##########           Internal_energy_repulsive:           25.237480

@<TRIPOS>MOLECULE
ZINC001596273020
 58 59 1 0 0
SMALL
USER_CHARGES


@<TRIPOS>ATOM
      1 C1         -5.3080    1.9458   51.5705 C.3     1  ZINC001596273020   -0.1900
      2 C2         -5.8046    2.9528   52.6099 C.3     1  ZINC001596273020   -0.0200
      3 N3         -5.8519    2.3106   53.9303 N.4     1  ZINC001596273020   -0.3900
      4 H4         -5.0129    1.7680   54.0707 H       1  ZINC001596273020    0.4300
      5 C5         -5.9488    3.3411   54.9728 C.3     1  ZINC001596273020   -0.0100
      6 C6         -5.9981    2.6722   56.3479 C.3     1  ZINC001596273020   -0.1900
      7 C7         -7.0238    1.4280   54.0038 C.3     1  ZINC001596273020   -0.0100
      8 C8         -8.2935    2.2438   53.7519 C.3     1  ZINC001596273020    0.0300
      9 O9         -9.4405    1.4260   53.9921 O.3     1  ZINC001596273020   -0.3900
     10 C10        -9.3858    0.1471   53.3569 C.3     1  ZINC001596273020    0.0500
     11 C11       -10.7729   -0.4978   53.3886 C.3     1  ZINC001596273020    0.1400
     12 N12       -11.1963   -0.6774   54.7795 N.am    1  ZINC001596273020   -0.7500
     13 C13       -10.7599   -1.7396   55.4850 C.2     1  ZINC001596273020    0.7200
     14 O14       -10.0161   -2.5497   54.9665 O.2     1  ZINC001596273020   -0.6000
     15 N15       -11.1481   -1.9039   56.7651 N.am    1  ZINC001596273020   -0.6300
     16 C16       -10.7702   -2.9953   57.6967 C.3     1  ZINC001596273020    0.1100
     17 C17       -10.5332   -2.2578   59.0461 C.3     1  ZINC001596273020   -0.0800
     18 H18       -10.8144   -2.9076   59.8748 H       1  ZINC001596273020    0.1200
     19 C19        -9.0562   -1.9286   59.1325 C.3     1  ZINC001596273020   -0.1000
     20 C20        -8.7771   -0.6694   59.9411 C.3     1  ZINC001596273020   -0.1200
     21 C21        -9.5252    0.4959   59.2799 C.3     1  ZINC001596273020   -0.1200
     22 C22       -11.0185    0.2579   59.4797 C.3     1  ZINC001596273020   -0.0800
     23 C23       -11.4733   -1.0742   58.9835 C.3     1  ZINC001596273020   -0.1400
     24 C24       -12.6481   -1.4535   59.8477 C.2     1  ZINC001596273020    0.5000
     25 O25       -13.2814   -0.5891   60.4293 O.co2   1  ZINC001596273020   -0.6900
     26 O26       -12.9654   -2.6249   59.9653 O.co2   1  ZINC001596273020   -0.6900
     27 C27       -12.0444   -1.0312   57.5620 C.3     1  ZINC001596273020    0.1600
     28 H28        -4.2701    1.6881   51.7813 H       1  ZINC001596273020    0.0800
     29 H29        -5.9218    1.0461   51.6141 H       1  ZINC001596273020    0.0800
     30 H30        -5.3783    2.3859   50.5758 H       1  ZINC001596273020    0.1000
     31 H31        -5.1251    3.8044   52.6442 H       1  ZINC001596273020    0.1300
     32 H32        -6.8027    3.2950   52.3364 H       1  ZINC001596273020    0.1300
     33 H33        -5.0793    3.9961   54.9182 H       1  ZINC001596273020    0.1300
     34 H34        -6.8552    3.9272   54.8211 H       1  ZINC001596273020    0.1300
     35 H35        -6.9238    2.1047   56.4430 H       1  ZINC001596273020    0.0800
     36 H36        -5.1469    1.9999   56.4556 H       1  ZINC001596273020    0.0800
     37 H37        -5.9585    3.4358   57.1249 H       1  ZINC001596273020    0.1000
     38 H38        -6.9382    0.6467   53.2486 H       1  ZINC001596273020    0.1400
     39 H39        -7.0746    0.9731   54.9931 H       1  ZINC001596273020    0.1400
     40 H40        -8.3126    3.1026   54.4228 H       1  ZINC001596273020    0.1000
     41 H41        -8.3040    2.5898   52.7183 H       1  ZINC001596273020    0.0700
     42 H42        -9.0653    0.2688   52.3222 H       1  ZINC001596273020    0.0700
     43 H43        -8.6765   -0.4905   53.8844 H       1  ZINC001596273020    0.0700
     44 H44       -11.4848    0.1461   52.8723 H       1  ZINC001596273020    0.0900
     45 H45       -10.7340   -1.4676   52.8925 H       1  ZINC001596273020    0.0700
     46 H46       -11.7906   -0.0317   55.1928 H       1  ZINC001596273020    0.3900
     47 H47       -11.5815   -3.7171   57.7913 H       1  ZINC001596273020    0.0700
     48 H48        -9.8561   -3.4859   57.3620 H       1  ZINC001596273020    0.0600
     49 H49        -8.5360   -2.7666   59.5964 H       1  ZINC001596273020    0.0500
     50 H50        -8.6673   -1.7916   58.1235 H       1  ZINC001596273020    0.0400
     51 H51        -9.1316   -0.8020   60.9633 H       1  ZINC001596273020    0.0700
     52 H52        -7.7065   -0.4645   59.9456 H       1  ZINC001596273020    0.0500
     53 H53        -9.2345    1.4357   59.7493 H       1  ZINC001596273020    0.0600
     54 H54        -9.2948    0.5265   58.2150 H       1  ZINC001596273020    0.0500
     55 H55       -11.2456    0.3328   60.5432 H       1  ZINC001596273020    0.0600
     56 H56       -11.5704    1.0352   58.9511 H       1  ZINC001596273020    0.0600
     57 H57       -12.0289   -0.0116   57.1770 H       1  ZINC001596273020    0.0700
     58 H58       -13.0596   -1.4280   57.5484 H       1  ZINC001596273020    0.0700
@<TRIPOS>BOND
     1     1     2    1
     2     1    28    1
     3     1    29    1
     4     1    30    1
     5     2     3    1
     6     2    31    1
     7     2    32    1
     8     3     4    1
     9     3     5    1
    10     3     7    1
    11     5     6    1
    12     5    33    1
    13     5    34    1
    14     6    35    1
    15     6    36    1
    16     6    37    1
    17     7     8    1
    18     7    38    1
    19     7    39    1
    20     8     9    1
    21     8    40    1
    22     8    41    1
    23     9    10    1
    24    10    11    1
    25    10    42    1
    26    10    43    1
    27    11    12    1
    28    11    44    1
    29    11    45    1
    30    12    13   am
    31    12    46    1
    32    13    14    2
    33    13    15   am
    34    15    27    1
    35    15    16    1
    36    16    17    1
    37    16    47    1
    38    16    48    1
    39    17    18    1
    40    17    23    1
    41    17    19    1
    42    19    20    1
    43    19    49    1
    44    19    50    1
    45    20    21    1
    46    20    51    1
    47    20    52    1
    48    21    22    1
    49    21    53    1
    50    21    54    1
    51    22    23    1
    52    22    55    1
    53    22    56    1
    54    23    24    1
    55    23    27    1
    56    24    25   ar
    57    24    26   ar
    58    27    57    1
    59    27    58    1
@<TRIPOS>SUBSTRUCTURE
     1 ZINC001596273020        1 TEMP              0 ****  ****    0 ROOT


##########                                Name:    ZINC000505965769
##########                DOCK_Rotatable_Bonds:                   9
##########                         Heavy_Atoms:                  29
##########                    Molecular_Weight:              419.88
##########                DOCK_Rotatable_Bonds:                   9
##########                       Formal_Charge:               -0.02
##########                     HBond_Acceptors:                   7
##########                        HBond_Donors:                   1
##########                         Heavy_Atoms:                  29
##########                          Grid_Score:          -34.320328
##########                     Grid_vdw_energy:          -33.120132
##########                      Grid_es_energy:           -1.200194
##########           Internal_energy_repulsive:           18.445259

@<TRIPOS>MOLECULE
ZINC000505965769
 52 54 1 0 0
SMALL
USER_CHARGES


@<TRIPOS>ATOM
      1 C1         -4.0744    1.7124   51.5521 C.3     1  ZINC000505965769    0.0200
      2 O2         -5.2735    2.3762   51.1473 O.3     1  ZINC000505965769   -0.3100
      3 C3         -6.3237    2.3277   52.0048 C.ar    1  ZINC000505965769    0.1800
      4 C4         -6.5766    3.4016   52.8518 C.ar    1  ZINC000505965769   -0.2200
      5 C5         -7.6318    3.3619   53.7180 C.ar    1  ZINC000505965769   -0.0200
      6 C6         -8.4647    2.2367   53.7565 C.ar    1  ZINC000505965769   -0.2100
      7 C7         -9.5996    2.1918   54.6861 C.2     1  ZINC000505965769    0.3900
      8 O8        -10.5776    2.8801   54.4829 O.2     1  ZINC000505965769   -0.4400
      9 C9         -9.5499    1.2907   55.8929 C.3     1  ZINC000505965769   -0.1500
     10 C10        -8.2110    1.4728   56.6107 C.3     1  ZINC000505965769   -0.1300
     11 C11        -8.1942    0.6345   57.8628 C.2     1  ZINC000505965769    0.5200
     12 O12        -7.3385    0.8163   58.7028 O.2     1  ZINC000505965769   -0.5300
     13 N13        -9.1301   -0.3173   58.0492 N.am    1  ZINC000505965769   -0.7200
     14 C14        -9.1127   -1.1334   59.2656 C.3     1  ZINC000505965769    0.1900
     15 H15        -8.1213   -1.5666   59.3985 H       1  ZINC000505965769    0.1100
     16 C16        -9.4469   -0.2699   60.4547 C.ar    1  ZINC000505965769   -0.1000
     17 C17        -8.7183   -0.3915   61.6232 C.ar    1  ZINC000505965769   -0.0900
     18 C18        -9.0239    0.3999   62.7141 C.ar    1  ZINC000505965769   -0.1500
     19 C19       -10.0599    1.3151   62.6364 C.ar    1  ZINC000505965769    0.1000
     20 F20       -10.3594    2.0896   63.7021 F       1  ZINC000505965769   -0.1400
     21 C21       -10.7887    1.4364   61.4652 C.ar    1  ZINC000505965769   -0.1500
     22 C22       -10.4781    0.6473   60.3740 C.ar    1  ZINC000505965769   -0.0600
     23 C23       -10.1467   -2.2543   59.1426 C.3     1  ZINC000505965769    0.0800
     24 H24       -10.3456   -2.6938   60.1201 H       1  ZINC000505965769    0.0700
     25 C25       -11.4577   -1.7109   58.5206 C.3     1  ZINC000505965769   -0.1500
     26 C26       -12.0534   -3.0079   57.9084 C.3     1  ZINC000505965769   -0.1600
     27 C27       -10.7873   -3.7745   57.4695 C.3     1  ZINC000505965769    0.0500
     28 O28        -9.6843   -3.2610   58.2281 O.3     1  ZINC000505965769   -0.3700
     29 C29        -8.2107    1.1536   52.9031 C.ar    1  ZINC000505965769    0.0500
     30 Cl30       -9.2367   -0.2462   52.9422 Cl      1  ZINC000505965769   -0.0200
     31 C31        -7.1463    1.2071   52.0295 C.ar    1  ZINC000505965769   -0.1600
     32 H32        -4.2794    0.6527   51.7044 H       1  ZINC000505965769    0.0600
     33 H33        -3.3160    1.8281   50.7777 H       1  ZINC000505965769    0.1100
     34 H34        -3.7132    2.1501   52.4827 H       1  ZINC000505965769    0.0600
     35 H35        -5.9357    4.2704   52.8246 H       1  ZINC000505965769    0.1400
     36 H36        -7.8236    4.1982   54.3739 H       1  ZINC000505965769    0.1500
     37 H37       -10.3636    1.5468   56.5714 H       1  ZINC000505965769    0.1100
     38 H38        -9.6540    0.2530   55.5760 H       1  ZINC000505965769    0.1100
     39 H39        -7.4004    1.1595   55.9526 H       1  ZINC000505965769    0.1000
     40 H40        -8.0798    2.5223   56.8743 H       1  ZINC000505965769    0.1000
     41 H41        -9.8152   -0.4618   57.3779 H       1  ZINC000505965769    0.4000
     42 H42        -7.9103   -1.1054   61.6837 H       1  ZINC000505965769    0.1300
     43 H43        -8.4551    0.3043   63.6272 H       1  ZINC000505965769    0.1400
     44 H44       -11.5973    2.1497   61.4036 H       1  ZINC000505965769    0.1400
     45 H45       -11.0462    0.7419   59.4603 H       1  ZINC000505965769    0.1400
     46 H46       -12.1152   -1.3000   59.2867 H       1  ZINC000505965769    0.0700
     47 H47       -11.2485   -0.9716   57.7474 H       1  ZINC000505965769    0.1000
     48 H48       -12.6078   -3.5718   58.6586 H       1  ZINC000505965769    0.0700
     49 H49       -12.6844   -2.7775   57.0501 H       1  ZINC000505965769    0.0800
     50 H50       -10.9103   -4.8384   57.6723 H       1  ZINC000505965769    0.0700
     51 H51       -10.6104   -3.6178   56.4054 H       1  ZINC000505965769    0.0700
     52 H52        -6.9464    0.3756   51.3699 H       1  ZINC000505965769    0.1500
@<TRIPOS>BOND
     1     1     2    1
     2     1    32    1
     3     1    33    1
     4     1    34    1
     5     2     3    1
     6     3    31   ar
     7     3     4   ar
     8     4     5   ar
     9     4    35    1
    10     5     6   ar
    11     5    36    1
    12     6     7    1
    13     6    29   ar
    14     7     8    2
    15     7     9    1
    16     9    10    1
    17     9    37    1
    18     9    38    1
    19    10    11    1
    20    10    39    1
    21    10    40    1
    22    11    12    2
    23    11    13   am
    24    13    14    1
    25    13    41    1
    26    14    15    1
    27    14    16    1
    28    14    23    1
    29    16    22   ar
    30    16    17   ar
    31    17    18   ar
    32    17    42    1
    33    18    19   ar
    34    18    43    1
    35    19    20    1
    36    19    21   ar
    37    21    22   ar
    38    21    44    1
    39    22    45    1
    40    23    24    1
    41    23    28    1
    42    23    25    1
    43    25    26    1
    44    25    46    1
    45    25    47    1
    46    26    27    1
    47    26    48    1
    48    26    49    1
    49    27    28    1
    50    27    50    1
    51    27    51    1
    52    29    30    1
    53    29    31   ar
    54    31    52    1
@<TRIPOS>SUBSTRUCTURE
     1 ZINC000505965769        1 TEMP              0 ****  ****    0 ROOT


##########                                Name:    ZINC001328997126
##########                DOCK_Rotatable_Bonds:                   7
##########                         Heavy_Atoms:                  26
##########                    Molecular_Weight:             388.488
##########                DOCK_Rotatable_Bonds:                   7
##########                       Formal_Charge:           0.0299993
##########                     HBond_Acceptors:                  10
##########                        HBond_Donors:                   1
##########                         Heavy_Atoms:                  26
##########                          Grid_Score:          -34.215816
##########                     Grid_vdw_energy:          -30.409792
##########                      Grid_es_energy:           -3.806023
##########           Internal_energy_repulsive:            6.265997

@<TRIPOS>MOLECULE
ZINC001328997126
 54 56 1 0 0
SMALL
USER_CHARGES


@<TRIPOS>ATOM
      1 C1        -10.3042    3.5890   64.3168 C.3     1  ZINC001328997126   -0.1700
      2 C2        -10.3604    2.0820   64.5755 C.3     1  ZINC001328997126    0.1400
      3 N3        -10.3142    1.3653   63.2987 N.am    1  ZINC001328997126   -0.6300
      4 C4         -9.0973    0.8593   62.6453 C.3     1  ZINC001328997126    0.0700
      5 C5         -9.6209    0.2007   61.3544 C.3     1  ZINC001328997126    0.0700
      6 H6         -9.3840   -0.8633   61.3451 H       1  ZINC001328997126    0.1200
      7 C7         -9.0310    0.8908   60.1228 C.3     1  ZINC001328997126    0.0500
      8 N8         -9.6789    0.3695   58.9120 N.3     1  ZINC001328997126   -0.5300
      9 C9         -9.0803   -0.9088   58.5030 C.3     1  ZINC001328997126    0.0500
     10 C10        -9.8334   -1.4563   57.2883 C.3     1  ZINC001328997126    0.0600
     11 N11        -9.7732   -0.4760   56.1951 N.3     1  ZINC001328997126   -0.5200
     12 C12       -10.4212   -0.9974   54.9842 C.3     1  ZINC001328997126    0.0400
     13 C13        -9.7733   -0.3903   53.7666 C.2     1  ZINC001328997126    0.5200
     14 O14       -10.3107   -0.4842   52.6833 O.2     1  ZINC001328997126   -0.5100
     15 N15        -8.5968    0.2570   53.8813 N.am    1  ZINC001328997126   -0.7300
     16 C16        -7.9661    0.8457   52.6973 C.3     1  ZINC001328997126    0.1600
     17 H17        -8.2516    0.2797   51.8105 H       1  ZINC001328997126    0.1100
     18 C18        -8.4170    2.3089   52.5444 C.3     1  ZINC001328997126   -0.1400
     19 C19        -7.4757    2.9559   51.4958 C.3     1  ZINC001328997126   -0.5800
     20 S20        -5.8327    2.3019   51.9776 S.o2    1  ZINC001328997126    2.4000
     21 O21        -5.1234    1.9053   50.8118 O.2     1  ZINC001328997126   -0.9300
     22 O22        -5.2266    3.1897   52.9070 O.2     1  ZINC001328997126   -0.9300
     23 C23        -6.4332    0.8178   52.8587 C.3     1  ZINC001328997126   -0.6100
     24 C24       -10.3719    0.8021   56.6041 C.3     1  ZINC001328997126    0.0500
     25 C25        -9.6188    1.3497   57.8188 C.3     1  ZINC001328997126    0.0600
     26 O26       -11.0625    0.4025   61.4150 O.3     1  ZINC001328997126   -0.3100
     27 C27       -11.3741    1.0588   62.5382 C.2     1  ZINC001328997126    0.6400
     28 O28       -12.5133    1.3571   62.8376 O.2     1  ZINC001328997126   -0.5200
     29 H29        -9.3786    3.8340   63.7959 H       1  ZINC001328997126    0.0600
     30 H30       -11.1554    3.8843   63.7034 H       1  ZINC001328997126    0.0600
     31 H31       -10.3386    4.1223   65.2668 H       1  ZINC001328997126    0.0700
     32 H32        -9.5091    1.7868   65.1889 H       1  ZINC001328997126    0.0900
     33 H33       -11.2860    1.8371   65.0965 H       1  ZINC001328997126    0.0900
     34 H34        -8.4201    1.6800   62.4089 H       1  ZINC001328997126    0.0900
     35 H35        -8.6016    0.1224   63.2773 H       1  ZINC001328997126    0.0900
     36 H36        -9.2010    1.9652   60.1921 H       1  ZINC001328997126    0.0900
     37 H37        -7.9598    0.6949   60.0747 H       1  ZINC001328997126    0.0600
     38 H38        -8.0335   -0.7530   58.2420 H       1  ZINC001328997126    0.0500
     39 H39        -9.1482   -1.6216   59.3247 H       1  ZINC001328997126    0.0900
     40 H40        -9.3729   -2.3900   56.9655 H       1  ZINC001328997126    0.0800
     41 H41       -10.8741   -1.6377   57.5571 H       1  ZINC001328997126    0.0500
     42 H42       -10.3118   -2.0814   54.9516 H       1  ZINC001328997126    0.1100
     43 H43       -11.4802   -0.7393   54.9991 H       1  ZINC001328997126    0.0700
     44 H44        -8.1676    0.3331   54.7478 H       1  ZINC001328997126    0.4100
     45 H45        -9.4484    2.3471   52.1940 H       1  ZINC001328997126    0.1100
     46 H46        -8.3267    2.8289   53.4982 H       1  ZINC001328997126    0.0900
     47 H47        -7.7399    2.6343   50.4883 H       1  ZINC001328997126    0.1400
     48 H48        -7.4978    4.0428   51.5745 H       1  ZINC001328997126    0.1400
     49 H49        -6.1612    0.8677   53.9131 H       1  ZINC001328997126    0.1400
     50 H50        -6.0238   -0.0840   52.4035 H       1  ZINC001328997126    0.1500
     51 H51       -10.3038    1.5151   55.7824 H       1  ZINC001328997126    0.1000
     52 H52       -11.4186    0.6464   56.8651 H       1  ZINC001328997126    0.0400
     53 H53       -10.0794    2.2833   58.1417 H       1  ZINC001328997126    0.0800
     54 H54        -8.5780    1.5311   57.5500 H       1  ZINC001328997126    0.0500
@<TRIPOS>BOND
     1     1     2    1
     2     1    29    1
     3     1    30    1
     4     1    31    1
     5     2     3    1
     6     2    32    1
     7     2    33    1
     8     3    27   am
     9     3     4    1
    10     4     5    1
    11     4    34    1
    12     4    35    1
    13     5     6    1
    14     5     7    1
    15     5    26    1
    16     7     8    1
    17     7    36    1
    18     7    37    1
    19     8    25    1
    20     8     9    1
    21     9    10    1
    22     9    38    1
    23     9    39    1
    24    10    11    1
    25    10    40    1
    26    10    41    1
    27    11    12    1
    28    11    24    1
    29    12    13    1
    30    12    42    1
    31    12    43    1
    32    13    14    2
    33    13    15   am
    34    15    16    1
    35    15    44    1
    36    16    17    1
    37    16    23    1
    38    16    18    1
    39    18    19    1
    40    18    45    1
    41    18    46    1
    42    19    20    1
    43    19    47    1
    44    19    48    1
    45    20    21    2
    46    20    22    2
    47    20    23    1
    48    23    49    1
    49    23    50    1
    50    24    25    1
    51    24    51    1
    52    24    52    1
    53    25    53    1
    54    25    54    1
    55    26    27    1
    56    27    28    2
@<TRIPOS>SUBSTRUCTURE
     1 ZINC001328997126        1 TEMP              0 ****  ****    0 ROOT


##########                                Name:    ZINC000058043838
##########                DOCK_Rotatable_Bonds:                   8
##########                         Heavy_Atoms:                  29
##########                    Molecular_Weight:             412.469
##########                DOCK_Rotatable_Bonds:                   8
##########                       Formal_Charge:           0.0200001
##########                     HBond_Acceptors:                   9
##########                        HBond_Donors:                   0
##########                         Heavy_Atoms:                  29
##########                          Grid_Score:          -34.067726
##########                     Grid_vdw_energy:          -34.189518
##########                      Grid_es_energy:            0.121794
##########           Internal_energy_repulsive:            6.990998

@<TRIPOS>MOLECULE
ZINC000058043838
 49 51 1 0 0
SMALL
USER_CHARGES


@<TRIPOS>ATOM
      1 C1        -14.8633   -3.9595   58.0321 C.3     1  ZINC000058043838    0.0300
      2 O2        -13.6112   -3.8019   57.3617 O.3     1  ZINC000058043838   -0.3800
      3 C3        -12.9586   -2.5600   57.6333 C.3     1  ZINC000058043838    0.0300
      4 C4        -11.5238   -2.6116   57.1049 C.3     1  ZINC000058043838    0.1000
      5 N5        -10.8259   -1.3749   57.4652 N.am    1  ZINC000058043838   -0.5200
      6 C6        -10.3702   -1.1999   58.7214 C.2     1  ZINC000058043838    0.5100
      7 O7        -10.5392   -2.0655   59.5539 O.2     1  ZINC000058043838   -0.4500
      8 C8         -9.6508    0.0716   59.0917 C.3     1  ZINC000058043838   -0.0900
      9 C9         -9.4537    0.1205   60.5850 C.ar    1  ZINC000058043838   -0.1400
     10 C10       -10.3847    0.7514   61.3955 C.ar    1  ZINC000058043838   -0.0500
     11 C11       -10.1623    0.7715   62.7642 C.ar    1  ZINC000058043838   -0.1700
     12 C12        -9.0282    0.1662   63.2710 C.ar    1  ZINC000058043838    0.1300
     13 C13        -8.7765    0.1815   64.7568 C.3     1  ZINC000058043838   -0.1100
     14 N14        -8.1635   -0.4250   62.4696 N.ar    1  ZINC000058043838   -0.4800
     15 C15        -8.3452   -0.4680   61.1643 C.ar    1  ZINC000058043838    0.1200
     16 C16       -10.6339   -0.3824   56.5119 C.2     1  ZINC000058043838    0.3100
     17 N17        -9.5187   -0.1404   55.8963 N.2     1  ZINC000058043838   -0.4700
     18 C18        -9.5206    0.8491   55.0141 C.2     1  ZINC000058043838    0.1100
     19 C19        -8.3108    1.2263   54.2433 C.ar    1  ZINC000058043838    0.0400
     20 C20        -7.5603    2.3390   54.6197 C.ar    1  ZINC000058043838   -0.0800
     21 C21        -6.4353    2.6849   53.8991 C.ar    1  ZINC000058043838   -0.0500
     22 C22        -6.0520    1.9298   52.8053 C.ar    1  ZINC000058043838   -0.0400
     23 N23        -4.8442    2.3060   52.0364 N.pl3   1  ZINC000058043838    0.0300
     24 O24        -4.1901    3.2786   52.3671 O.2     1  ZINC000058043838   -0.1600
     25 O25        -4.5047    1.6427   51.0729 O.2     1  ZINC000058043838   -0.1600
     26 C26        -6.7927    0.8243   52.4275 C.ar    1  ZINC000058043838   -0.0500
     27 C27        -7.9169    0.4661   53.1435 C.ar    1  ZINC000058043838   -0.1100
     28 C28       -10.6954    1.4872   54.8659 C.2     1  ZINC000058043838   -0.2600
     29 S29       -11.8692    0.7379   55.9458 S.3     1  ZINC000058043838    0.1500
     30 H30       -14.7077   -3.9069   59.1097 H       1  ZINC000058043838    0.0500
     31 H31       -15.5430   -3.1649   57.7240 H       1  ZINC000058043838    0.0400
     32 H32       -15.2945   -4.9267   57.7740 H       1  ZINC000058043838    0.0900
     33 H33       -13.4982   -1.7508   57.1413 H       1  ZINC000058043838    0.0600
     34 H34       -12.9435   -2.3853   58.7092 H       1  ZINC000058043838    0.0800
     35 H35       -11.0048   -3.4630   57.5450 H       1  ZINC000058043838    0.1200
     36 H36       -11.5397   -2.7168   56.0200 H       1  ZINC000058043838    0.1000
     37 H37        -8.6803    0.0974   58.5962 H       1  ZINC000058043838    0.1100
     38 H38       -10.2435    0.9298   58.7751 H       1  ZINC000058043838    0.1100
     39 H39       -11.2621    1.2165   60.9711 H       1  ZINC000058043838    0.1300
     40 H40       -10.8665    1.2543   63.4256 H       1  ZINC000058043838    0.1400
     41 H41        -9.2308   -0.6990   65.2113 H       1  ZINC000058043838    0.0800
     42 H42        -7.7027    0.1737   64.9436 H       1  ZINC000058043838    0.0800
     43 H43        -9.2143    1.0807   65.1902 H       1  ZINC000058043838    0.0800
     44 H44        -7.6151   -0.9613   60.5397 H       1  ZINC000058043838    0.1500
     45 H45        -7.8588    2.9294   55.4733 H       1  ZINC000058043838    0.1600
     46 H46        -5.8533    3.5470   54.1896 H       1  ZINC000058043838    0.1600
     47 H47        -6.4889    0.2383   51.5726 H       1  ZINC000058043838    0.1600
     48 H48        -8.4942   -0.3975   52.8479 H       1  ZINC000058043838    0.1500
     49 H49       -10.8872    2.3136   54.1977 H       1  ZINC000058043838    0.1800
@<TRIPOS>BOND
     1     1     2    1
     2     1    30    1
     3     1    31    1
     4     1    32    1
     5     2     3    1
     6     3     4    1
     7     3    33    1
     8     3    34    1
     9     4     5    1
    10     4    35    1
    11     4    36    1
    12     5     6   am
    13     5    16    1
    14     6     7    2
    15     6     8    1
    16     8     9    1
    17     8    37    1
    18     8    38    1
    19     9    15   ar
    20     9    10   ar
    21    10    11   ar
    22    10    39    1
    23    11    12   ar
    24    11    40    1
    25    12    13    1
    26    12    14   ar
    27    13    41    1
    28    13    42    1
    29    13    43    1
    30    14    15   ar
    31    15    44    1
    32    16    29    1
    33    16    17    2
    34    17    18    1
    35    18    19    1
    36    18    28    2
    37    19    27   ar
    38    19    20   ar
    39    20    21   ar
    40    20    45    1
    41    21    22   ar
    42    21    46    1
    43    22    23    1
    44    22    26   ar
    45    23    24    2
    46    23    25    2
    47    26    27   ar
    48    26    47    1
    49    27    48    1
    50    28    29    1
    51    28    49    1
@<TRIPOS>SUBSTRUCTURE
     1 ZINC000058043838        1 TEMP              0 ****  ****    0 ROOT


##########                                Name:    ZINC000434204837
##########                DOCK_Rotatable_Bonds:                   7
##########                         Heavy_Atoms:                  29
##########                    Molecular_Weight:             406.511
##########                DOCK_Rotatable_Bonds:                   7
##########                       Formal_Charge:          -0.0200002
##########                     HBond_Acceptors:                   8
##########                        HBond_Donors:                   0
##########                         Heavy_Atoms:                  29
##########                          Grid_Score:          -33.924660
##########                     Grid_vdw_energy:          -33.254066
##########                      Grid_es_energy:           -0.670593
##########           Internal_energy_repulsive:           16.826612

@<TRIPOS>MOLECULE
ZINC000434204837
 51 54 1 0 0
SMALL
USER_CHARGES


@<TRIPOS>ATOM
      1 C1        -10.3749    1.6195   54.7195 C.3     1  ZINC000434204837   -0.1300
      2 C2         -9.0605    1.4506   54.0017 C.ar    1  ZINC000434204837   -0.0700
      3 C3         -8.0088    2.3043   54.2758 C.ar    1  ZINC000434204837   -0.1200
      4 C4         -6.8030    2.1494   53.6172 C.ar    1  ZINC000434204837   -0.1100
      5 C5         -6.6493    1.1406   52.6850 C.ar    1  ZINC000434204837   -0.1300
      6 C6         -7.7012    0.2861   52.4115 C.ar    1  ZINC000434204837   -0.0900
      7 C7         -8.9052    0.4383   53.0730 C.ar    1  ZINC000434204837   -0.1000
      8 C8        -10.0517   -0.4932   52.7748 C.3     1  ZINC000434204837    0.0100
      9 C9        -10.2395   -1.4442   53.9285 C.2     1  ZINC000434204837    0.2000
     10 N10       -11.0779   -1.3047   54.9271 N.2     1  ZINC000434204837   -0.4600
     11 C11       -10.8964   -2.3860   55.7061 C.2     1  ZINC000434204837    0.1700
     12 C12       -11.6284   -2.6961   56.9863 C.3     1  ZINC000434204837   -0.0300
     13 S13       -13.1533   -1.7237   57.0599 S.3     1  ZINC000434204837    0.0900
     14 C14       -13.9464   -2.5015   58.4277 C.2     1  ZINC000434204837    0.2100
     15 N15       -14.8372   -3.4680   58.3693 N.2     1  ZINC000434204837   -0.3300
     16 N16       -15.2126   -3.8059   59.5499 N.2     1  ZINC000434204837   -0.0200
     17 N17       -14.6030   -3.0956   60.4359 N.2     1  ZINC000434204837   -0.0700
     18 N18       -13.7496   -2.2211   59.7406 N.pl3   1  ZINC000434204837   -0.3100
     19 C19       -12.8865   -1.2601   60.2862 C.ar    1  ZINC000434204837    0.1100
     20 C20       -13.3927   -0.0520   60.7463 C.ar    1  ZINC000434204837   -0.1100
     21 C21       -12.5401    0.8927   61.2837 C.ar    1  ZINC000434204837   -0.0900
     22 C22       -11.1837    0.6361   61.3632 C.ar    1  ZINC000434204837   -0.0600
     23 C23       -10.2562    1.6688   61.9500 C.3     1  ZINC000434204837   -0.0600
     24 C24        -9.5209    1.0703   63.1509 C.3     1  ZINC000434204837   -0.1500
     25 C25        -9.2385    2.1001   60.8921 C.3     1  ZINC000434204837   -0.1500
     26 C26       -10.6766   -0.5663   60.9057 C.ar    1  ZINC000434204837   -0.1000
     27 C27       -11.5250   -1.5169   60.3726 C.ar    1  ZINC000434204837   -0.0900
     28 N28        -9.9739   -3.1144   55.1518 N.2     1  ZINC000434204837   -0.3600
     29 O29        -9.5874   -2.5939   54.1266 O.3     1  ZINC000434204837    0.0900
     30 H30       -10.3671    1.0286   55.6354 H       1  ZINC000434204837    0.0800
     31 H31       -10.5214    2.6709   54.9668 H       1  ZINC000434204837    0.0700
     32 H32       -11.1866    1.2811   54.0756 H       1  ZINC000434204837    0.0700
     33 H33        -8.1288    3.0926   55.0043 H       1  ZINC000434204837    0.1300
     34 H34        -5.9814    2.8170   53.8310 H       1  ZINC000434204837    0.1200
     35 H35        -5.7077    1.0200   52.1701 H       1  ZINC000434204837    0.1300
     36 H36        -7.5812   -0.5020   51.6828 H       1  ZINC000434204837    0.1300
     37 H37       -10.9631    0.0871   52.6301 H       1  ZINC000434204837    0.1200
     38 H38        -9.8339   -1.0592   51.8691 H       1  ZINC000434204837    0.1200
     39 H39       -11.8728   -3.7579   57.0171 H       1  ZINC000434204837    0.1300
     40 H40       -10.9954   -2.4440   57.8370 H       1  ZINC000434204837    0.1400
     41 H41       -14.4519    0.1492   60.6838 H       1  ZINC000434204837    0.1400
     42 H42       -12.9333    1.8326   61.6418 H       1  ZINC000434204837    0.1400
     43 H43       -10.8342    2.5348   62.2725 H       1  ZINC000434204837    0.0800
     44 H44        -8.9429    0.2043   62.8283 H       1  ZINC000434204837    0.0600
     45 H45        -8.8501    1.8173   63.5753 H       1  ZINC000434204837    0.0600
     46 H46       -10.2460    0.7630   63.9046 H       1  ZINC000434204837    0.0600
     47 H47        -9.7623    2.5265   60.0365 H       1  ZINC000434204837    0.0600
     48 H48        -8.5676    2.8471   61.3165 H       1  ZINC000434204837    0.0600
     49 H49        -8.6605    1.2341   60.5696 H       1  ZINC000434204837    0.0600
     50 H50        -9.6166   -0.7636   60.9688 H       1  ZINC000434204837    0.1400
     51 H51       -11.1284   -2.4559   60.0155 H       1  ZINC000434204837    0.1400
@<TRIPOS>BOND
     1     1     2    1
     2     1    30    1
     3     1    31    1
     4     1    32    1
     5     2     7   ar
     6     2     3   ar
     7     3     4   ar
     8     3    33    1
     9     4     5   ar
    10     4    34    1
    11     5     6   ar
    12     5    35    1
    13     6     7   ar
    14     6    36    1
    15     7     8    1
    16     8     9    1
    17     8    37    1
    18     8    38    1
    19     9    29    1
    20     9    10    2
    21    10    11    1
    22    11    12    1
    23    11    28    2
    24    12    13    1
    25    12    39    1
    26    12    40    1
    27    13    14    1
    28    14    18    1
    29    14    15    2
    30    15    16    1
    31    16    17    2
    32    17    18    1
    33    18    19    1
    34    19    27   ar
    35    19    20   ar
    36    20    21   ar
    37    20    41    1
    38    21    22   ar
    39    21    42    1
    40    22    23    1
    41    22    26   ar
    42    23    24    1
    43    23    25    1
    44    23    43    1
    45    24    44    1
    46    24    45    1
    47    24    46    1
    48    25    47    1
    49    25    48    1
    50    25    49    1
    51    26    27   ar
    52    26    50    1
    53    27    51    1
    54    28    29    1
@<TRIPOS>SUBSTRUCTURE
     1 ZINC000434204837        1 TEMP              0 ****  ****    0 ROOT


##########                                Name:    ZINC001289410668
##########                DOCK_Rotatable_Bonds:                  11
##########                         Heavy_Atoms:                  26
##########                    Molecular_Weight:             362.515
##########                DOCK_Rotatable_Bonds:                  11
##########                       Formal_Charge:          -0.0400008
##########                     HBond_Acceptors:                   6
##########                        HBond_Donors:                   1
##########                         Heavy_Atoms:                  26
##########                          Grid_Score:          -33.908710
##########                     Grid_vdw_energy:          -32.130192
##########                      Grid_es_energy:           -1.778518
##########           Internal_energy_repulsive:           23.836412

@<TRIPOS>MOLECULE
ZINC001289410668
 60 61 1 0 0
SMALL
USER_CHARGES


@<TRIPOS>ATOM
      1 C1         -4.8380    0.8123   67.0471 C.3     1  ZINC001289410668   -0.1500
      2 C2         -5.9887   -0.0353   66.5009 C.3     1  ZINC001289410668   -0.1300
      3 C3         -7.3114    0.4618   67.0877 C.3     1  ZINC001289410668   -0.1200
      4 C4         -8.4623   -0.3849   66.5404 C.3     1  ZINC001289410668   -0.1200
      5 C5         -8.5550   -0.2008   65.0244 C.3     1  ZINC001289410668   -0.1100
      6 C6         -9.3255    1.0838   64.7128 C.3     1  ZINC001289410668   -0.1400
      7 C7         -9.8602    1.0200   63.3054 C.2     1  ZINC001289410668    0.5100
      8 O8        -10.9672    1.4488   63.0572 O.2     1  ZINC001289410668   -0.5300
      9 N9         -9.1083    0.4863   62.3223 N.am    1  ZINC001289410668   -0.7200
     10 C10        -9.6288    0.4226   60.9544 C.3     1  ZINC001289410668    0.1400
     11 H11       -10.2709    1.2777   60.7428 H       1  ZINC001289410668    0.1100
     12 C12       -10.3792   -0.9098   60.7074 C.3     1  ZINC001289410668    0.0800
     13 N13       -10.3015   -1.1222   59.2506 N.am    1  ZINC001289410668   -0.6200
     14 C14       -11.1583   -1.8605   58.5175 C.2     1  ZINC001289410668    0.5100
     15 O15       -12.0898   -2.4207   59.0555 O.2     1  ZINC001289410668   -0.5100
     16 C16       -10.9589   -1.9898   57.0294 C.3     1  ZINC001289410668    0.0900
     17 N17       -11.6296   -0.8796   56.3485 N.pl3   1  ZINC001289410668   -0.4500
     18 C18       -12.8726   -0.3831   56.6350 C.2     1  ZINC001289410668   -0.0500
     19 C19       -13.0964    0.6278   55.7737 C.2     1  ZINC001289410668   -0.0200
     20 N20       -12.0194    0.7453   54.9830 N.2     1  ZINC001289410668   -0.4800
     21 C21       -11.1346   -0.1510   55.3248 C.2     1  ZINC001289410668    0.2300
     22 C22        -9.7876   -0.3468   54.6781 C.3     1  ZINC001289410668   -0.0100
     23 C23        -9.8975   -1.4090   53.5823 C.3     1  ZINC001289410668   -0.1400
     24 C24        -9.3204    0.9739   54.0631 C.3     1  ZINC001289410668   -0.1400
     25 C25        -9.1349   -0.3946   58.7296 C.3     1  ZINC001289410668    0.1100
     26 C26        -8.4732    0.3263   59.9236 C.3     1  ZINC001289410668   -0.1100
     27 H27        -7.6494   -0.2655   60.3229 H       1  ZINC001289410668    0.0900
     28 C28        -7.9883    1.7184   59.5142 C.3     1  ZINC001289410668   -0.1400
     29 H29        -3.8956    0.4581   66.6292 H       1  ZINC001289410668    0.0500
     30 H30        -4.9903    1.8548   66.7680 H       1  ZINC001289410668    0.0500
     31 H31        -4.8082    0.7276   68.1335 H       1  ZINC001289410668    0.0500
     32 H32        -6.0185    0.0493   65.4146 H       1  ZINC001289410668    0.0600
     33 H33        -5.8363   -1.0779   66.7801 H       1  ZINC001289410668    0.0600
     34 H34        -7.2820    0.3763   68.1739 H       1  ZINC001289410668    0.0600
     35 H35        -7.4633    1.5047   66.8092 H       1  ZINC001289410668    0.0600
     36 H36        -8.2809   -1.4353   66.7683 H       1  ZINC001289410668    0.0600
     37 H37        -9.3975   -0.0691   67.0027 H       1  ZINC001289410668    0.0600
     38 H38        -7.5513   -0.1334   64.6046 H       1  ZINC001289410668    0.0700
     39 H39        -9.0757   -1.0521   64.5862 H       1  ZINC001289410668    0.0700
     40 H40       -10.1549    1.1887   65.4123 H       1  ZINC001289410668    0.1000
     41 H41        -8.6581    1.9403   64.8095 H       1  ZINC001289410668    0.1000
     42 H42        -8.2225    0.1445   62.5206 H       1  ZINC001289410668    0.4000
     43 H43        -9.8872   -1.7260   61.2365 H       1  ZINC001289410668    0.0800
     44 H44       -11.4189   -0.8239   61.0232 H       1  ZINC001289410668    0.0800
     45 H45        -9.8930   -1.9648   56.8022 H       1  ZINC001289410668    0.1200
     46 H46       -11.3813   -2.9345   56.6870 H       1  ZINC001289410668    0.1200
     47 H47       -13.5448   -0.7348   57.4037 H       1  ZINC001289410668    0.1700
     48 H48       -13.9870    1.2370   55.7279 H       1  ZINC001289410668    0.1700
     49 H49        -9.0679   -0.6727   55.4290 H       1  ZINC001289410668    0.0700
     50 H50       -10.6172   -1.0831   52.8314 H       1  ZINC001289410668    0.0700
     51 H51        -8.9233   -1.5506   53.1146 H       1  ZINC001289410668    0.0600
     52 H52       -10.2304   -2.3499   54.0205 H       1  ZINC001289410668    0.0500
     53 H53       -10.0401    1.2997   53.3121 H       1  ZINC001289410668    0.0700
     54 H54        -9.2420    1.7307   54.8437 H       1  ZINC001289410668    0.0600
     55 H55        -8.3461    0.8324   53.5953 H       1  ZINC001289410668    0.0600
     56 H56        -8.4302   -1.0955   58.2824 H       1  ZINC001289410668    0.0800
     57 H57        -9.4552    0.3365   57.9873 H       1  ZINC001289410668    0.0800
     58 H58        -8.8314    2.3032   59.1463 H       1  ZINC001289410668    0.0600
     59 H59        -7.5486    2.2184   60.3773 H       1  ZINC001289410668    0.0600
     60 H60        -7.2395    1.6257   58.7276 H       1  ZINC001289410668    0.0700
@<TRIPOS>BOND
     1     1     2    1
     2     1    29    1
     3     1    30    1
     4     1    31    1
     5     2     3    1
     6     2    32    1
     7     2    33    1
     8     3     4    1
     9     3    34    1
    10     3    35    1
    11     4     5    1
    12     4    36    1
    13     4    37    1
    14     5     6    1
    15     5    38    1
    16     5    39    1
    17     6     7    1
    18     6    40    1
    19     6    41    1
    20     7     8    2
    21     7     9   am
    22     9    10    1
    23     9    42    1
    24    10    11    1
    25    10    26    1
    26    10    12    1
    27    12    13    1
    28    12    43    1
    29    12    44    1
    30    13    14   am
    31    13    25    1
    32    14    15    2
    33    14    16    1
    34    16    17    1
    35    16    45    1
    36    16    46    1
    37    17    21    1
    38    17    18    1
    39    18    19    2
    40    18    47    1
    41    19    20    1
    42    19    48    1
    43    20    21    2
    44    21    22    1
    45    22    23    1
    46    22    24    1
    47    22    49    1
    48    23    50    1
    49    23    51    1
    50    23    52    1
    51    24    53    1
    52    24    54    1
    53    24    55    1
    54    25    26    1
    55    25    56    1
    56    25    57    1
    57    26    27    1
    58    26    28    1
    59    28    58    1
    60    28    59    1
    61    28    60    1
@<TRIPOS>SUBSTRUCTURE
     1 ZINC001289410668        1 TEMP              0 ****  ****    0 ROOT


##########                                Name:    ZINC000506566356
##########                DOCK_Rotatable_Bonds:                  10
##########                         Heavy_Atoms:                  28
##########                    Molecular_Weight:               415.9
##########                DOCK_Rotatable_Bonds:                  10
##########                       Formal_Charge:           0.0199998
##########                     HBond_Acceptors:                   8
##########                        HBond_Donors:                   2
##########                         Heavy_Atoms:                  28
##########                          Grid_Score:          -33.873337
##########                     Grid_vdw_energy:          -32.407867
##########                      Grid_es_energy:           -1.465470
##########           Internal_energy_repulsive:            7.627313

@<TRIPOS>MOLECULE
ZINC000506566356
 46 48 1 0 0
SMALL
USER_CHARGES


@<TRIPOS>ATOM
      1 O1        -10.5217    1.4559   59.1497 O.2     1  ZINC000506566356   -0.5100
      2 C2         -9.3845    1.0576   59.0046 C.2     1  ZINC000506566356    0.5100
      3 N3         -8.5468    1.0119   60.0593 N.am    1  ZINC000506566356   -0.7000
      4 C4         -9.0069    1.4488   61.3798 C.3     1  ZINC000506566356    0.1200
      5 C5         -9.3187    0.2241   62.2422 C.3     1  ZINC000506566356   -0.0900
      6 C6         -9.3877    0.6342   63.6908 C.ar    1  ZINC000506566356   -0.0700
      7 C7         -8.8830   -0.2007   64.6699 C.ar    1  ZINC000506566356   -0.1100
      8 C8         -8.9455    0.1750   65.9991 C.ar    1  ZINC000506566356   -0.1000
      9 C9         -9.5130    1.3853   66.3494 C.ar    1  ZINC000506566356   -0.1100
     10 C10       -10.0184    2.2215   65.3695 C.ar    1  ZINC000506566356   -0.0300
     11 Cl11      -10.7309    3.7424   65.8087 Cl      1  ZINC000506566356   -0.0700
     12 C12        -9.9504    1.8477   64.0394 C.ar    1  ZINC000506566356   -0.1000
     13 C13        -8.9154    0.6122   57.6586 C.2     1  ZINC000506566356    0.5100
     14 O14        -7.8054    0.1383   57.5289 O.2     1  ZINC000506566356   -0.5000
     15 N15        -9.7245    0.7364   56.5879 N.am    1  ZINC000506566356   -0.6300
     16 C16        -9.2851    0.3193   55.3271 C.ar    1  ZINC000506566356    0.1100
     17 C17        -8.2234    0.9662   54.7111 C.ar    1  ZINC000506566356   -0.0800
     18 C18        -7.7913    0.5521   53.4653 C.ar    1  ZINC000506566356   -0.1400
     19 C19        -8.4144   -0.5060   52.8301 C.ar    1  ZINC000506566356   -0.0900
     20 C20        -9.4736   -1.1556   53.4371 C.ar    1  ZINC000506566356   -0.1900
     21 C21        -9.9092   -0.7512   54.6882 C.ar    1  ZINC000506566356    0.1200
     22 O22       -10.9504   -1.3888   55.2864 O.3     1  ZINC000506566356   -0.3100
     23 C23       -10.6539   -2.5978   55.9883 C.3     1  ZINC000506566356    0.1400
     24 C24       -11.8420   -2.9971   56.8250 C.2     1  ZINC000506566356    0.0500
     25 C25       -12.1279   -2.4205   57.9962 C.2     1  ZINC000506566356   -0.2300
     26 S26       -13.5846   -3.1800   58.6332 S.3     1  ZINC000506566356    0.1400
     27 C27       -13.6643   -4.1973   57.2613 C.2     1  ZINC000506566356    0.0200
     28 N28       -12.6871   -3.9397   56.4591 N.2     1  ZINC000506566356   -0.4700
     29 H29        -7.6390    0.6899   59.9442 H       1  ZINC000506566356    0.4200
     30 H30        -8.2274    2.0414   61.8585 H       1  ZINC000506566356    0.0800
     31 H31        -9.9068    2.0538   61.2691 H       1  ZINC000506566356    0.0800
     32 H32       -10.2759   -0.1999   61.9387 H       1  ZINC000506566356    0.0900
     33 H33        -8.5337   -0.5209   62.1125 H       1  ZINC000506566356    0.0900
     34 H34        -8.4400   -1.1471   64.3967 H       1  ZINC000506566356    0.1300
     35 H35        -8.5510   -0.4778   66.7637 H       1  ZINC000506566356    0.1300
     36 H36        -9.5624    1.6783   67.3877 H       1  ZINC000506566356    0.1300
     37 H37       -10.3446    2.4999   63.2743 H       1  ZINC000506566356    0.1300
     38 H38       -10.6116    1.1151   56.6915 H       1  ZINC000506566356    0.4300
     39 H39        -7.7349    1.7932   55.2049 H       1  ZINC000506566356    0.1500
     40 H40        -6.9650    1.0565   52.9867 H       1  ZINC000506566356    0.1300
     41 H41        -8.0732   -0.8261   51.8566 H       1  ZINC000506566356    0.1300
     42 H42        -9.9584   -1.9813   52.9375 H       1  ZINC000506566356    0.1400
     43 H43       -10.4318   -3.3887   55.2718 H       1  ZINC000506566356    0.0900
     44 H44        -9.7907   -2.4402   56.6348 H       1  ZINC000506566356    0.0900
     45 H45       -11.5655   -1.6289   58.4688 H       1  ZINC000506566356    0.1800
     46 H46       -14.4251   -4.9442   57.0890 H       1  ZINC000506566356    0.2100
@<TRIPOS>BOND
     1     1     2    2
     2     2     3   am
     3     2    13    1
     4     3     4    1
     5     3    29    1
     6     4     5    1
     7     4    30    1
     8     4    31    1
     9     5     6    1
    10     5    32    1
    11     5    33    1
    12     6    12   ar
    13     6     7   ar
    14     7     8   ar
    15     7    34    1
    16     8     9   ar
    17     8    35    1
    18     9    10   ar
    19     9    36    1
    20    10    11    1
    21    10    12   ar
    22    12    37    1
    23    13    14    2
    24    13    15   am
    25    15    16    1
    26    15    38    1
    27    16    21   ar
    28    16    17   ar
    29    17    18   ar
    30    17    39    1
    31    18    19   ar
    32    18    40    1
    33    19    20   ar
    34    19    41    1
    35    20    21   ar
    36    20    42    1
    37    21    22    1
    38    22    23    1
    39    23    24    1
    40    23    43    1
    41    23    44    1
    42    24    28    1
    43    24    25    2
    44    25    26    1
    45    25    45    1
    46    26    27    1
    47    27    28    2
    48    27    46    1
@<TRIPOS>SUBSTRUCTURE
     1 ZINC000506566356        1 TEMP              0 ****  ****    0 ROOT


##########                                Name:    ZINC000501032137
##########                DOCK_Rotatable_Bonds:                  10
##########                         Heavy_Atoms:                  25
##########                    Molecular_Weight:             407.307
##########                DOCK_Rotatable_Bonds:                  10
##########                       Formal_Charge:           0.0099998
##########                     HBond_Acceptors:                   5
##########                        HBond_Donors:                   1
##########                         Heavy_Atoms:                  25
##########                          Grid_Score:          -33.857456
##########                     Grid_vdw_energy:          -32.917366
##########                      Grid_es_energy:           -0.940092
##########           Internal_energy_repulsive:            8.999991

@<TRIPOS>MOLECULE
ZINC000501032137
 48 50 1 0 0
SMALL
USER_CHARGES


@<TRIPOS>ATOM
      1 C1        -10.3602    1.5007   62.1465 C.3     1  ZINC000501032137   -0.1500
      2 C2         -8.8613    1.1998   62.0860 C.3     1  ZINC000501032137   -0.1200
      3 C3         -8.6379   -0.1387   61.3794 C.3     1  ZINC000501032137    0.0600
      4 O4         -8.6259    0.0656   59.9651 O.3     1  ZINC000501032137   -0.3800
      5 C5         -8.5891   -1.1431   59.2036 C.3     1  ZINC000501032137    0.0500
      6 C6         -9.9669   -1.4018   58.5906 C.3     1  ZINC000501032137    0.1600
      7 H7        -10.6277   -0.5647   58.8157 H       1  ZINC000501032137    0.1000
      8 C8        -10.5534   -2.6869   59.1783 C.3     1  ZINC000501032137   -0.0900
      9 C9        -11.9985   -2.8122   58.7697 C.ar    1  ZINC000501032137   -0.0600
     10 C10       -12.3313   -3.4679   57.5993 C.ar    1  ZINC000501032137   -0.0900
     11 C11       -13.6570   -3.5832   57.2240 C.ar    1  ZINC000501032137   -0.1100
     12 C12       -14.6499   -3.0428   58.0188 C.ar    1  ZINC000501032137   -0.0900
     13 C13       -14.3173   -2.3864   59.1904 C.ar    1  ZINC000501032137   -0.0800
     14 Br14      -15.6755   -1.6467   60.2785 Br      1  ZINC000501032137   -0.0600
     15 C15       -12.9914   -2.2763   59.5683 C.ar    1  ZINC000501032137   -0.0800
     16 N16        -9.8364   -1.5440   57.1384 N.am    1  ZINC000501032137   -0.7100
     17 C17        -9.6568   -0.4530   56.3678 C.2     1  ZINC000501032137    0.6100
     18 O18        -9.6016    0.6494   56.8782 O.2     1  ZINC000501032137   -0.5200
     19 C19        -9.5272   -0.5960   54.9064 C.2     1  ZINC000501032137   -0.0800
     20 C20        -9.0825    0.3523   54.0374 C.2     1  ZINC000501032137    0.0800
     21 C21        -8.6300    1.7468   54.3861 C.3     1  ZINC000501032137   -0.0800
     22 C22        -7.3264    1.8901   55.1741 C.3     1  ZINC000501032137   -0.1700
     23 C23        -7.3719    2.2750   53.6940 C.3     1  ZINC000501032137   -0.1500
     24 O24        -9.1235   -0.1911   52.8104 O.3     1  ZINC000501032137   -0.2000
     25 C25        -9.5830   -1.4454   52.9224 C.2     1  ZINC000501032137    0.1800
     26 N26        -9.8240   -1.7030   54.1730 N.2     1  ZINC000501032137   -0.4600
     27 H27       -10.7615    1.5529   61.1344 H       1  ZINC000501032137    0.0600
     28 H28       -10.8676    0.7095   62.6983 H       1  ZINC000501032137    0.0600
     29 H29       -10.5194    2.4543   62.6501 H       1  ZINC000501032137    0.0600
     30 H30        -8.3539    1.9912   61.5343 H       1  ZINC000501032137    0.0700
     31 H31        -8.4600    1.1477   63.0982 H       1  ZINC000501032137    0.0700
     32 H32        -7.6834   -0.5607   61.6937 H       1  ZINC000501032137    0.0500
     33 H33        -9.4427   -0.8260   61.6403 H       1  ZINC000501032137    0.0500
     34 H34        -7.8495   -1.0492   58.4085 H       1  ZINC000501032137    0.0700
     35 H35        -8.3191   -1.9746   59.8546 H       1  ZINC000501032137    0.0600
     36 H36        -9.9946   -3.5451   58.8051 H       1  ZINC000501032137    0.0900
     37 H37       -10.4848   -2.6535   60.2656 H       1  ZINC000501032137    0.0800
     38 H38       -11.5555   -3.8901   56.9777 H       1  ZINC000501032137    0.1200
     39 H39       -13.9166   -4.0954   56.3092 H       1  ZINC000501032137    0.1300
     40 H40       -15.6854   -3.1327   57.7254 H       1  ZINC000501032137    0.1300
     41 H41       -12.7313   -1.7642   60.4830 H       1  ZINC000501032137    0.1200
     42 H42        -9.8792   -2.4235   56.7315 H       1  ZINC000501032137    0.4100
     43 H43        -9.4264    2.4608   54.5958 H       1  ZINC000501032137    0.1500
     44 H44        -7.2651    2.6986   55.9027 H       1  ZINC000501032137    0.1100
     45 H45        -6.7961    0.9760   55.4403 H       1  ZINC000501032137    0.1000
     46 H46        -6.8714    1.6139   52.9865 H       1  ZINC000501032137    0.1000
     47 H47        -7.3404    3.3366   53.4488 H       1  ZINC000501032137    0.1100
     48 H48        -9.7267   -2.1342   52.1031 H       1  ZINC000501032137    0.2500
@<TRIPOS>BOND
     1     1     2    1
     2     1    27    1
     3     1    28    1
     4     1    29    1
     5     2     3    1
     6     2    30    1
     7     2    31    1
     8     3     4    1
     9     3    32    1
    10     3    33    1
    11     4     5    1
    12     5     6    1
    13     5    34    1
    14     5    35    1
    15     6     7    1
    16     6     8    1
    17     6    16    1
    18     8     9    1
    19     8    36    1
    20     8    37    1
    21     9    15   ar
    22     9    10   ar
    23    10    11   ar
    24    10    38    1
    25    11    12   ar
    26    11    39    1
    27    12    13   ar
    28    12    40    1
    29    13    14    1
    30    13    15   ar
    31    15    41    1
    32    16    17   am
    33    16    42    1
    34    17    18    2
    35    17    19    1
    36    19    26    1
    37    19    20    2
    38    20    21    1
    39    20    24    1
    40    21    23    1
    41    21    22    1
    42    21    43    1
    43    22    23    1
    44    22    44    1
    45    22    45    1
    46    23    46    1
    47    23    47    1
    48    24    25    1
    49    25    26    2
    50    25    48    1
@<TRIPOS>SUBSTRUCTURE
     1 ZINC000501032137        1 TEMP              0 ****  ****    0 ROOT


##########                                Name:    ZINC000981048968
##########                DOCK_Rotatable_Bonds:                   7
##########                         Heavy_Atoms:                  25
##########                    Molecular_Weight:             344.414
##########                DOCK_Rotatable_Bonds:                   7
##########                       Formal_Charge:                0.02
##########                     HBond_Acceptors:                   7
##########                        HBond_Donors:                   2
##########                         Heavy_Atoms:                  25
##########                          Grid_Score:          -33.683506
##########                     Grid_vdw_energy:          -32.872169
##########                      Grid_es_energy:           -0.811337
##########           Internal_energy_repulsive:            3.917899

@<TRIPOS>MOLECULE
ZINC000981048968
 49 52 1 0 0
SMALL
USER_CHARGES


@<TRIPOS>ATOM
      1 C1         -8.3403    0.7672   67.0242 C.3     1  ZINC000981048968   -0.0800
      2 C2         -8.3994    0.3428   65.5793 C.2     1  ZINC000981048968   -0.0100
      3 C3         -9.3346    0.7218   64.6949 C.2     1  ZINC000981048968   -0.1600
      4 C4         -8.9827    0.0640   63.4280 C.2     1  ZINC000981048968   -0.2300
      5 C5         -9.7004    0.1610   62.1445 C.2     1  ZINC000981048968    0.5900
      6 O6        -10.5995    0.9687   62.0100 O.2     1  ZINC000981048968   -0.5300
      7 N7         -9.3603   -0.6456   61.1196 N.am    1  ZINC000981048968   -0.7300
      8 C8        -10.0749   -0.5504   59.8442 C.3     1  ZINC000981048968    0.1500
      9 H9        -10.6810    0.3555   59.8340 H       1  ZINC000981048968    0.0900
     10 C10       -10.9807   -1.7719   59.6748 C.3     1  ZINC000981048968   -0.1300
     11 C11       -11.7270   -1.6725   58.3429 C.3     1  ZINC000981048968   -0.1200
     12 C12       -10.7169   -1.6233   57.1947 C.3     1  ZINC000981048968   -0.1100
     13 C13        -9.8112   -0.4019   57.3641 C.3     1  ZINC000981048968    0.1000
     14 H14       -10.4172    0.5040   57.3540 H       1  ZINC000981048968    0.0500
     15 N15        -8.8414   -0.3548   56.2618 N.3     1  ZINC000981048968   -0.6800
     16 C16        -9.1902    0.6980   55.2984 C.3     1  ZINC000981048968    0.1500
     17 C17        -8.3002    0.5857   54.0875 C.2     1  ZINC000981048968    0.1800
     18 N18        -8.5758   -0.0468   52.9864 N.2     1  ZINC000981048968   -0.3800
     19 O19        -7.6540    0.0510   52.2040 O.3     1  ZINC000981048968    0.0800
     20 C20        -6.6731    0.7773   52.7481 C.2     1  ZINC000981048968    0.2100
     21 C21        -5.3567    1.1318   52.1060 C.3     1  ZINC000981048968   -0.0800
     22 C22        -5.3470    2.2919   51.1085 C.3     1  ZINC000981048968   -0.1600
     23 C23        -4.7192    2.4679   52.4927 C.3     1  ZINC000981048968   -0.1500
     24 N24        -7.0770    1.1268   53.9458 N.2     1  ZINC000981048968   -0.4600
     25 C25        -9.0649   -0.5013   58.6960 C.3     1  ZINC000981048968   -0.1300
     26 C26        -7.8525   -0.6542   63.6886 C.2     1  ZINC000981048968    0.0200
     27 O27        -7.5218   -0.4698   64.9704 O.3     1  ZINC000981048968   -0.1700
     28 H28        -7.4729    0.3114   67.5015 H       1  ZINC000981048968    0.0800
     29 H29        -8.2578    1.8526   67.0811 H       1  ZINC000981048968    0.0900
     30 H30        -9.2475    0.4445   67.5350 H       1  ZINC000981048968    0.0900
     31 H31       -10.1745    1.3760   64.8766 H       1  ZINC000981048968    0.1600
     32 H32        -8.6424   -1.2891   61.2264 H       1  ZINC000981048968    0.4000
     33 H33       -10.3746   -2.6778   59.6849 H       1  ZINC000981048968    0.0700
     34 H34       -11.7002   -1.8068   60.4927 H       1  ZINC000981048968    0.0700
     35 H35       -12.3722   -2.5426   58.2221 H       1  ZINC000981048968    0.0700
     36 H36       -12.3330   -0.7665   58.3326 H       1  ZINC000981048968    0.0600
     37 H37       -10.1108   -2.5293   57.2049 H       1  ZINC000981048968    0.0700
     38 H38       -11.2486   -1.5525   56.2458 H       1  ZINC000981048968    0.0700
     39 H39        -7.9030   -0.2291   56.6108 H       1  ZINC000981048968    0.3500
     40 H40       -10.2311    0.5834   54.9962 H       1  ZINC000981048968    0.1100
     41 H41        -9.0517    1.6748   55.7618 H       1  ZINC000981048968    0.0600
     42 H42        -4.6884    0.2934   51.9098 H       1  ZINC000981048968    0.1500
     43 H43        -4.6723    2.2168   50.2557 H       1  ZINC000981048968    0.1200
     44 H44        -6.2928    2.7986   50.9166 H       1  ZINC000981048968    0.1100
     45 H45        -5.2520    3.0904   53.2114 H       1  ZINC000981048968    0.1000
     46 H46        -3.6315    2.5085   52.5504 H       1  ZINC000981048968    0.1200
     47 H47        -8.4196    0.3688   58.8168 H       1  ZINC000981048968    0.0700
     48 H48        -8.4588   -1.4072   58.7063 H       1  ZINC000981048968    0.0800
     49 H49        -7.3144   -1.2650   62.9789 H       1  ZINC000981048968    0.2100
@<TRIPOS>BOND
     1     1     2    1
     2     1    28    1
     3     1    29    1
     4     1    30    1
     5     2    27    1
     6     2     3    2
     7     3     4    1
     8     3    31    1
     9     4     5    1
    10     4    26    2
    11     5     6    2
    12     5     7   am
    13     7     8    1
    14     7    32    1
    15     8     9    1
    16     8    25    1
    17     8    10    1
    18    10    11    1
    19    10    33    1
    20    10    34    1
    21    11    12    1
    22    11    35    1
    23    11    36    1
    24    12    13    1
    25    12    37    1
    26    12    38    1
    27    13    14    1
    28    13    15    1
    29    13    25    1
    30    15    16    1
    31    15    39    1
    32    16    17    1
    33    16    40    1
    34    16    41    1
    35    17    24    1
    36    17    18    2
    37    18    19    1
    38    19    20    1
    39    20    21    1
    40    20    24    2
    41    21    23    1
    42    21    22    1
    43    21    42    1
    44    22    23    1
    45    22    43    1
    46    22    44    1
    47    23    45    1
    48    23    46    1
    49    25    47    1
    50    25    48    1
    51    26    27    1
    52    26    49    1
@<TRIPOS>SUBSTRUCTURE
     1 ZINC000981048968        1 TEMP              0 ****  ****    0 ROOT


##########                                Name:    ZINC000432058199
##########                DOCK_Rotatable_Bonds:                   5
##########                         Heavy_Atoms:                  30
##########                    Molecular_Weight:             406.441
##########                DOCK_Rotatable_Bonds:                   5
##########                       Formal_Charge:        -4.02331e-07
##########                     HBond_Acceptors:                   8
##########                        HBond_Donors:                   1
##########                         Heavy_Atoms:                  30
##########                          Grid_Score:          -33.680325
##########                     Grid_vdw_energy:          -31.664534
##########                      Grid_es_energy:           -2.015790
##########           Internal_energy_repulsive:           16.890749

@<TRIPOS>MOLECULE
ZINC000432058199
 52 55 1 0 0
SMALL
USER_CHARGES


@<TRIPOS>ATOM
      1 C1        -10.9956    2.5634   64.9807 C.3     1  ZINC000432058199    0.0300
      2 O2        -11.3625    1.9730   63.7321 O.3     1  ZINC000432058199   -0.3100
      3 C3        -10.4448    1.1654   63.1382 C.ar    1  ZINC000432058199    0.1300
      4 C4         -9.2001    0.9814   63.7239 C.ar    1  ZINC000432058199   -0.1900
      5 C5         -8.2637    0.1606   63.1233 C.ar    1  ZINC000432058199   -0.0800
      6 C6         -8.5616   -0.4803   61.9376 C.ar    1  ZINC000432058199   -0.1100
      7 C7         -9.8093   -0.3012   61.3432 C.ar    1  ZINC000432058199    0.0100
      8 C8        -10.1322   -0.9896   60.0685 C.2     1  ZINC000432058199    0.2100
      9 N9         -9.3590   -1.8180   59.4162 N.2     1  ZINC000432058199   -0.3700
     10 O10        -9.9173   -2.2062   58.4118 O.3     1  ZINC000432058199    0.1200
     11 C11       -11.1304   -1.6525   58.3194 C.2     1  ZINC000432058199    0.1600
     12 C12       -12.1360   -1.8784   57.2200 C.3     1  ZINC000432058199    0.2500
     13 H13       -13.0946   -1.4486   57.5105 H       1  ZINC000432058199    0.1500
     14 C14       -12.3019   -3.3806   56.9813 C.3     1  ZINC000432058199   -0.1700
     15 N15       -11.6663   -1.2373   55.9893 N.am    1  ZINC000432058199   -0.5800
     16 C16       -12.2970   -0.2267   55.3802 C.2     1  ZINC000432058199    0.7000
     17 O17       -13.3308    0.2670   55.7861 O.2     1  ZINC000432058199   -0.5100
     18 N18       -11.6591    0.1818   54.2686 N.am    1  ZINC000432058199   -0.7200
     19 C19       -10.4625   -0.6667   54.1335 C.3     1  ZINC000432058199    0.1400
     20 H20       -10.4993   -1.2367   53.2051 H       1  ZINC000432058199    0.1400
     21 C21        -9.2101    0.1695   54.1910 C.ar    1  ZINC000432058199   -0.1000
     22 C22        -8.8930    0.8607   55.3455 C.ar    1  ZINC000432058199   -0.1000
     23 C23        -7.7443    1.6278   55.3983 C.ar    1  ZINC000432058199   -0.0800
     24 C24        -7.3987    2.3816   56.6566 C.3     1  ZINC000432058199   -0.1200
     25 C25        -6.9122    1.7031   54.2970 C.ar    1  ZINC000432058199   -0.1100
     26 C26        -7.2292    1.0116   53.1427 C.ar    1  ZINC000432058199   -0.0800
     27 C27        -6.3223    1.0942   51.9418 C.3     1  ZINC000432058199   -0.1200
     28 C28        -8.3757    0.2412   53.0913 C.ar    1  ZINC000432058199   -0.1000
     29 C29       -10.5424   -1.5890   55.3338 C.2     1  ZINC000432058199    0.5300
     30 O30        -9.7610   -2.4647   55.6379 O.2     1  ZINC000432058199   -0.4500
     31 N31       -11.2835   -0.8820   59.3674 N.2     1  ZINC000432058199   -0.4500
     32 C32       -10.7540    0.5213   61.9512 C.ar    1  ZINC000432058199   -0.1200
     33 H33       -11.8156    3.1826   65.3447 H       1  ZINC000432058199    0.1000
     34 H34       -10.7841    1.7776   65.7059 H       1  ZINC000432058199    0.0600
     35 H35       -10.1074    3.1803   64.8439 H       1  ZINC000432058199    0.0600
     36 H36        -8.9622    1.4810   64.6514 H       1  ZINC000432058199    0.1400
     37 H37        -7.2963    0.0209   63.5827 H       1  ZINC000432058199    0.1400
     38 H38        -7.8277   -1.1203   61.4704 H       1  ZINC000432058199    0.1400
     39 H39       -11.3433   -3.8103   56.6907 H       1  ZINC000432058199    0.0900
     40 H40       -12.6514   -3.8576   57.8969 H       1  ZINC000432058199    0.0900
     41 H41       -13.0293   -3.5438   56.1860 H       1  ZINC000432058199    0.0900
     42 H42       -11.9337    0.8956   53.6719 H       1  ZINC000432058199    0.4500
     43 H43        -9.5429    0.8014   56.2060 H       1  ZINC000432058199    0.1200
     44 H44        -6.7882    1.7503   57.3023 H       1  ZINC000432058199    0.0700
     45 H45        -6.8429    3.2831   56.3991 H       1  ZINC000432058199    0.0700
     46 H46        -8.3152    2.6565   57.1787 H       1  ZINC000432058199    0.0700
     47 H47        -6.0148    2.3025   54.3382 H       1  ZINC000432058199    0.1300
     48 H48        -5.5765    0.3011   51.9947 H       1  ZINC000432058199    0.0700
     49 H49        -6.9121    0.9785   51.0326 H       1  ZINC000432058199    0.0700
     50 H50        -5.8224    2.0628   51.9299 H       1  ZINC000432058199    0.0700
     51 H51        -8.6233   -0.2991   52.1895 H       1  ZINC000432058199    0.1300
     52 H52       -11.7223    0.6632   61.4945 H       1  ZINC000432058199    0.1400
@<TRIPOS>BOND
     1     1     2    1
     2     1    33    1
     3     1    34    1
     4     1    35    1
     5     2     3    1
     6     3    32   ar
     7     3     4   ar
     8     4     5   ar
     9     4    36    1
    10     5     6   ar
    11     5    37    1
    12     6     7   ar
    13     6    38    1
    14     7     8    1
    15     7    32   ar
    16     8    31    1
    17     8     9    2
    18     9    10    1
    19    10    11    1
    20    11    12    1
    21    11    31    2
    22    12    13    1
    23    12    14    1
    24    12    15    1
    25    14    39    1
    26    14    40    1
    27    14    41    1
    28    15    29   am
    29    15    16   am
    30    16    17    2
    31    16    18   am
    32    18    19    1
    33    18    42    1
    34    19    20    1
    35    19    21    1
    36    19    29    1
    37    21    28   ar
    38    21    22   ar
    39    22    23   ar
    40    22    43    1
    41    23    24    1
    42    23    25   ar
    43    24    44    1
    44    24    45    1
    45    24    46    1
    46    25    26   ar
    47    25    47    1
    48    26    27    1
    49    26    28   ar
    50    27    48    1
    51    27    49    1
    52    27    50    1
    53    28    51    1
    54    29    30    2
    55    32    52    1
@<TRIPOS>SUBSTRUCTURE
     1 ZINC000432058199        1 TEMP              0 ****  ****    0 ROOT


##########                                Name:    ZINC000654382142
##########                DOCK_Rotatable_Bonds:                  14
##########                         Heavy_Atoms:                  24
##########                    Molecular_Weight:             379.401
##########                DOCK_Rotatable_Bonds:                  14
##########                       Formal_Charge:          0.00999933
##########                     HBond_Acceptors:                  12
##########                        HBond_Donors:                   2
##########                         Heavy_Atoms:                  24
##########                          Grid_Score:          -33.607555
##########                     Grid_vdw_energy:          -32.277958
##########                      Grid_es_energy:           -1.329597
##########           Internal_energy_repulsive:           18.574116

@<TRIPOS>MOLECULE
ZINC000654382142
 48 47 1 0 0
SMALL
USER_CHARGES


@<TRIPOS>ATOM
      1 C1         -8.7587    0.1974   63.2803 C.3     1  ZINC000654382142    0.0300
      2 O2         -8.4979   -0.5402   62.0844 O.3     1  ZINC000654382142   -0.3700
      3 C3         -9.0230    0.0660   60.9016 C.3     1  ZINC000654382142    0.0400
      4 C4         -8.5655   -0.7272   59.6759 C.3     1  ZINC000654382142    0.1400
      5 N5         -9.0192   -0.0500   58.4587 N.am    1  ZINC000654382142   -0.6100
      6 C6        -10.2477   -0.4878   57.7914 C.3     1  ZINC000654382142    0.0800
      7 C7        -10.1460   -1.9787   57.4628 C.3     1  ZINC000654382142    0.0500
      8 H8         -9.1918   -2.3654   57.8205 H       1  ZINC000654382142    0.1400
      9 O9        -10.2341   -2.1616   56.0482 O.3     1  ZINC000654382142   -0.5200
     10 C10       -11.2897   -2.7308   58.1464 C.3     1  ZINC000654382142    0.4200
     11 F11       -11.1129   -2.6877   59.5335 F       1  ZINC000654382142   -0.1800
     12 F12       -12.5082   -2.1298   57.8127 F       1  ZINC000654382142   -0.1700
     13 F13       -11.2938   -4.0626   57.7179 F       1  ZINC000654382142   -0.1800
     14 C14        -8.3063    0.9757   57.9526 C.2     1  ZINC000654382142    0.7100
     15 O15        -7.2858    1.3381   58.5056 O.2     1  ZINC000654382142   -0.5600
     16 N16        -8.7245    1.5997   56.8337 N.am    1  ZINC000654382142   -0.7500
     17 C17        -7.9505    2.7159   56.2846 C.3     1  ZINC000654382142    0.1400
     18 C18        -8.1054    2.7439   54.7627 C.3     1  ZINC000654382142   -0.1600
     19 C19        -6.7765    2.3619   54.1078 C.3     1  ZINC000654382142    0.1200
     20 N20        -7.0252    1.8642   52.7526 N.am    1  ZINC000654382142   -1.0000
     21 C21        -8.0320    0.8240   52.5275 C.3     1  ZINC000654382142    0.0900
     22 S22        -6.1683    2.4774   51.4750 S.o2    1  ZINC000654382142    2.6100
     23 C23        -4.4374    2.1065   51.8712 C.3     1  ZINC000654382142   -0.6800
     24 O24        -6.6009    1.7081   50.3614 O.2     1  ZINC000654382142   -0.9500
     25 O25        -6.4044    3.8774   51.5344 O.2     1  ZINC000654382142   -0.9500
     26 H26        -8.3281   -0.3284   64.1326 H       1  ZINC000654382142    0.0900
     27 H27        -8.3113    1.1882   63.2010 H       1  ZINC000654382142    0.0400
     28 H28        -9.8353    0.2949   63.4196 H       1  ZINC000654382142    0.0400
     29 H29       -10.1120    0.0682   60.9472 H       1  ZINC000654382142    0.0500
     30 H30        -8.6603    1.0912   60.8271 H       1  ZINC000654382142    0.0600
     31 H31        -7.4775   -0.7930   59.6711 H       1  ZINC000654382142    0.0900
     32 H32        -8.9900   -1.7305   59.7133 H       1  ZINC000654382142    0.1000
     33 H33       -11.0992   -0.3183   58.4504 H       1  ZINC000654382142    0.1000
     34 H34       -10.3826    0.0790   56.8702 H       1  ZINC000654382142    0.1000
     35 H35       -11.0545   -1.8293   55.6589 H       1  ZINC000654382142    0.3900
     36 H36        -9.5379    1.3098   56.3919 H       1  ZINC000654382142    0.3900
     37 H37        -8.3163    3.6529   56.7044 H       1  ZINC000654382142    0.0700
     38 H38        -6.8986    2.5892   56.5406 H       1  ZINC000654382142    0.0700
     39 H39        -8.8757    2.0336   54.4627 H       1  ZINC000654382142    0.0700
     40 H40        -8.3919    3.7464   54.4451 H       1  ZINC000654382142    0.0800
     41 H41        -6.1297    3.2380   54.0601 H       1  ZINC000654382142    0.0900
     42 H42        -6.2913    1.5838   54.6973 H       1  ZINC000654382142    0.1000
     43 H43        -8.9991    1.2894   52.3377 H       1  ZINC000654382142    0.0600
     44 H44        -7.7442    0.2200   51.6670 H       1  ZINC000654382142    0.0700
     45 H45        -8.1016    0.1886   53.4105 H       1  ZINC000654382142    0.0700
     46 H46        -4.3096    1.0281   51.9668 H       1  ZINC000654382142    0.1300
     47 H47        -3.7942    2.4792   51.0740 H       1  ZINC000654382142    0.1300
     48 H48        -4.1683    2.5889   52.8108 H       1  ZINC000654382142    0.1300
@<TRIPOS>BOND
     1     1     2    1
     2     1    26    1
     3     1    27    1
     4     1    28    1
     5     2     3    1
     6     3     4    1
     7     3    29    1
     8     3    30    1
     9     4     5    1
    10     4    31    1
    11     4    32    1
    12     5     6    1
    13     5    14   am
    14     6     7    1
    15     6    33    1
    16     6    34    1
    17     7     8    1
    18     7     9    1
    19     7    10    1
    20     9    35    1
    21    10    11    1
    22    10    12    1
    23    10    13    1
    24    14    15    2
    25    14    16   am
    26    16    17    1
    27    16    36    1
    28    17    18    1
    29    17    37    1
    30    17    38    1
    31    18    19    1
    32    18    39    1
    33    18    40    1
    34    19    20    1
    35    19    41    1
    36    19    42    1
    37    20    21    1
    38    20    22   am
    39    21    43    1
    40    21    44    1
    41    21    45    1
    42    22    23    1
    43    22    24    2
    44    22    25    2
    45    23    46    1
    46    23    47    1
    47    23    48    1
@<TRIPOS>SUBSTRUCTURE
     1 ZINC000654382142        1 TEMP              0 ****  ****    0 ROOT


##########                                Name:    ZINC000474251633
##########                DOCK_Rotatable_Bonds:                   8
##########                         Heavy_Atoms:                  28
##########                    Molecular_Weight:             416.931
##########                DOCK_Rotatable_Bonds:                   8
##########                       Formal_Charge:          0.00999953
##########                     HBond_Acceptors:                   8
##########                        HBond_Donors:                   2
##########                         Heavy_Atoms:                  28
##########                          Grid_Score:          -33.550026
##########                     Grid_vdw_energy:          -32.231514
##########                      Grid_es_energy:           -1.318512
##########           Internal_energy_repulsive:            8.257093

@<TRIPOS>MOLECULE
ZINC000474251633
 49 52 1 0 0
SMALL
USER_CHARGES


@<TRIPOS>ATOM
      1 O1         -9.7342    1.0817   58.1311 O.2     1  ZINC000474251633   -0.5300
      2 C2         -9.2269   -0.0011   57.9284 C.2     1  ZINC000474251633    0.5100
      3 C3         -8.4176   -0.6684   59.0105 C.3     1  ZINC000474251633    0.1000
      4 N4         -8.6239    0.0353   60.2788 N.am    1  ZINC000474251633   -0.7100
      5 C5         -9.6626   -0.2950   61.0715 C.2     1  ZINC000474251633    0.5900
      6 O6        -10.4282   -1.1786   60.7346 O.2     1  ZINC000474251633   -0.5000
      7 C7         -9.8703    0.4115   62.3419 C.2     1  ZINC000474251633   -0.2300
      8 C8         -9.0563    0.3282   63.4009 C.2     1  ZINC000474251633    0.0400
      9 Cl9        -7.6227   -0.6509   63.3924 Cl      1  ZINC000474251633   -0.0100
     10 C10        -9.4395    1.0870   64.5202 C.ar    1  ZINC000474251633   -0.0900
     11 C11        -8.7953    1.2062   65.7743 C.ar    1  ZINC000474251633   -0.0600
     12 C12        -9.3208    1.9968   66.7476 C.ar    1  ZINC000474251633   -0.1200
     13 C13       -10.4980    2.7016   66.5300 C.ar    1  ZINC000474251633   -0.0800
     14 C14       -11.1473    2.6060   65.3225 C.ar    1  ZINC000474251633   -0.0900
     15 C15       -10.6261    1.7995   64.3057 C.ar    1  ZINC000474251633   -0.1200
     16 S16       -11.2159    1.4866   62.6774 S.3     1  ZINC000474251633    0.1700
     17 N17        -9.3916   -0.6104   56.7376 N.am    1  ZINC000474251633   -0.7200
     18 C18       -10.1784    0.0383   55.6857 C.3     1  ZINC000474251633    0.2100
     19 C19        -9.4012    0.0219   54.3946 C.2     1  ZINC000474251633    0.0500
     20 N20        -8.7987    1.0469   53.8488 N.2     1  ZINC000474251633   -0.2700
     21 N21        -8.1930    0.6171   52.6610 N.pl3   1  ZINC000474251633   -0.3600
     22 C22        -7.4146    1.4493   51.7402 C.3     1  ZINC000474251633    0.1500
     23 C23        -7.8110    2.9311   51.9038 C.3     1  ZINC000474251633   -0.1400
     24 C24        -6.7549    3.5011   52.8829 C.3     1  ZINC000474251633   -0.1300
     25 C25        -5.4560    2.7821   52.4411 C.3     1  ZINC000474251633   -0.1200
     26 C26        -5.9172    1.3546   52.0819 C.3     1  ZINC000474251633   -0.1400
     27 C27        -8.4533   -0.6989   52.5147 C.2     1  ZINC000474251633    0.0600
     28 C28        -9.1942   -1.0933   53.5761 C.2     1  ZINC000474251633   -0.2600
     29 H29        -8.7356   -1.7058   59.1148 H       1  ZINC000474251633    0.1100
     30 H30        -7.3608   -0.6371   58.7455 H       1  ZINC000474251633    0.1100
     31 H31        -8.0129    0.7389   60.5480 H       1  ZINC000474251633    0.4100
     32 H32        -7.8794    0.6648   65.9600 H       1  ZINC000474251633    0.1300
     33 H33        -8.8179    2.0776   67.7000 H       1  ZINC000474251633    0.1400
     34 H34       -10.9043    3.3259   67.3120 H       1  ZINC000474251633    0.1400
     35 H35       -12.0626    3.1552   65.1583 H       1  ZINC000474251633    0.1400
     36 H36        -8.9891   -1.4782   56.5770 H       1  ZINC000474251633    0.4100
     37 H37       -11.1175   -0.4983   55.5512 H       1  ZINC000474251633    0.0900
     38 H38       -10.3867    1.0694   55.9712 H       1  ZINC000474251633    0.0900
     39 H39        -7.5842    1.1279   50.7126 H       1  ZINC000474251633    0.1100
     40 H40        -7.7605    3.4476   50.9451 H       1  ZINC000474251633    0.0900
     41 H41        -8.8107    3.0138   52.3304 H       1  ZINC000474251633    0.0800
     42 H42        -6.6592    4.5802   52.7626 H       1  ZINC000474251633    0.0800
     43 H43        -7.0059    3.2469   53.9126 H       1  ZINC000474251633    0.0700
     44 H44        -5.0252    3.2745   51.5693 H       1  ZINC000474251633    0.0700
     45 H45        -4.7370    2.7561   53.2598 H       1  ZINC000474251633    0.0700
     46 H46        -5.7698    0.6894   52.9327 H       1  ZINC000474251633    0.0700
     47 H47        -5.3601    0.9879   51.2198 H       1  ZINC000474251633    0.0800
     48 H48        -8.1252   -1.3261   51.6989 H       1  ZINC000474251633    0.1700
     49 H49        -9.5653   -2.0914   53.7562 H       1  ZINC000474251633    0.1500
@<TRIPOS>BOND
     1     1     2    2
     2     2     3    1
     3     2    17   am
     4     3     4    1
     5     3    29    1
     6     3    30    1
     7     4     5   am
     8     4    31    1
     9     5     6    2
    10     5     7    1
    11     7    16    1
    12     7     8    2
    13     8     9    1
    14     8    10    1
    15    10    15   ar
    16    10    11   ar
    17    11    12   ar
    18    11    32    1
    19    12    13   ar
    20    12    33    1
    21    13    14   ar
    22    13    34    1
    23    14    15   ar
    24    14    35    1
    25    15    16    1
    26    17    18    1
    27    17    36    1
    28    18    19    1
    29    18    37    1
    30    18    38    1
    31    19    28    1
    32    19    20    2
    33    20    21    1
    34    21    22    1
    35    21    27    1
    36    22    26    1
    37    22    23    1
    38    22    39    1
    39    23    24    1
    40    23    40    1
    41    23    41    1
    42    24    25    1
    43    24    42    1
    44    24    43    1
    45    25    26    1
    46    25    44    1
    47    25    45    1
    48    26    46    1
    49    26    47    1
    50    27    28    2
    51    27    48    1
    52    28    49    1
@<TRIPOS>SUBSTRUCTURE
     1 ZINC000474251633        1 TEMP              0 ****  ****    0 ROOT


##########                                Name:    ZINC000772422035
##########                DOCK_Rotatable_Bonds:                  10
##########                         Heavy_Atoms:                  25
##########                    Molecular_Weight:             348.399
##########                DOCK_Rotatable_Bonds:                  10
##########                       Formal_Charge:          0.00999987
##########                     HBond_Acceptors:                   7
##########                        HBond_Donors:                   0
##########                         Heavy_Atoms:                  25
##########                          Grid_Score:          -33.498276
##########                     Grid_vdw_energy:          -32.207863
##########                      Grid_es_energy:           -1.290412
##########           Internal_energy_repulsive:           13.488719

@<TRIPOS>MOLECULE
ZINC000772422035
 49 50 1 0 0
SMALL
USER_CHARGES


@<TRIPOS>ATOM
      1 C1        -14.0210    3.0098   67.4278 C.3     1  ZINC000772422035    0.0300
      2 O2        -12.9268    2.2428   66.9214 O.3     1  ZINC000772422035   -0.3900
      3 C3        -11.6432    2.7278   67.3201 C.3     1  ZINC000772422035    0.0600
      4 C4        -10.5530    1.8357   66.7232 C.3     1  ZINC000772422035    0.0700
      5 O5        -10.6483    1.8564   65.2975 O.3     1  ZINC000772422035   -0.3000
      6 C6         -9.7449    1.1144   64.6089 C.ar    1  ZINC000772422035    0.3300
      7 C7         -9.7917    1.0876   63.2213 C.ar    1  ZINC000772422035   -0.1700
      8 C8         -8.8643    0.3267   62.5307 C.ar    1  ZINC000772422035   -0.0200
      9 C9         -8.8809    0.2712   61.0247 C.3     1  ZINC000772422035    0.1100
     10 O10       -10.2505    0.1420   60.5603 O.3     1  ZINC000772422035   -0.3500
     11 C11       -10.7822   -1.0905   60.5657 C.2     1  ZINC000772422035    0.4700
     12 O12       -10.1669   -2.0117   61.0483 O.2     1  ZINC000772422035   -0.5000
     13 C13       -12.1463   -1.3253   59.9700 C.3     1  ZINC000772422035   -0.1100
     14 C14       -12.0530   -1.2681   58.4439 C.3     1  ZINC000772422035    0.0000
     15 H15       -11.0073   -1.1899   58.1466 H       1  ZINC000772422035    0.1000
     16 C16       -12.8217   -0.0486   57.9313 C.3     1  ZINC000772422035   -0.1500
     17 C17       -12.6498   -2.5213   57.8569 C.2     1  ZINC000772422035   -0.2000
     18 C18       -12.1132   -3.3421   56.9225 C.2     1  ZINC000772422035   -0.0200
     19 C19       -10.7758   -3.1862   56.2456 C.3     1  ZINC000772422035   -0.0800
     20 O20       -13.0066   -4.3204   56.7188 O.3     1  ZINC000772422035    0.1000
     21 N21       -13.9886   -4.1766   57.4095 N.2     1  ZINC000772422035   -0.3600
     22 C22       -13.8965   -3.1158   58.1584 C.2     1  ZINC000772422035    0.0300
     23 C23       -14.9205   -2.6151   59.1443 C.3     1  ZINC000772422035   -0.0800
     24 C24        -7.9186   -0.3837   63.2567 C.ar    1  ZINC000772422035   -0.1900
     25 C25        -7.9310   -0.3108   64.6356 C.ar    1  ZINC000772422035    0.1400
     26 N26        -8.8245    0.4278   65.2657 N.ar    1  ZINC000772422035   -0.5300
     27 H27       -14.9595    2.5775   67.0806 H       1  ZINC000772422035    0.0900
     28 H28       -13.9979    3.0003   68.5175 H       1  ZINC000772422035    0.0400
     29 H29       -13.9404    4.0369   67.0717 H       1  ZINC000772422035    0.0400
     30 H30       -11.5134    3.7492   66.9622 H       1  ZINC000772422035    0.0600
     31 H31       -11.5706    2.7120   68.4077 H       1  ZINC000772422035    0.0700
     32 H32        -9.5738    2.2058   67.0272 H       1  ZINC000772422035    0.0800
     33 H33       -10.6827    0.8145   67.0813 H       1  ZINC000772422035    0.0800
     34 H34       -10.5420    1.6526   62.6880 H       1  ZINC000772422035    0.1400
     35 H35        -8.4456    1.1860   60.6227 H       1  ZINC000772422035    0.0900
     36 H36        -8.3000   -0.5868   60.6864 H       1  ZINC000772422035    0.0900
     37 H37       -12.5123   -2.3056   60.2752 H       1  ZINC000772422035    0.1100
     38 H38       -12.8335   -0.5555   60.3210 H       1  ZINC000772422035    0.1100
     39 H39       -13.8344   -0.0618   58.3342 H       1  ZINC000772422035    0.0600
     40 H40       -12.3149    0.8615   58.2521 H       1  ZINC000772422035    0.0800
     41 H41       -12.8634   -0.0768   56.8424 H       1  ZINC000772422035    0.0600
     42 H42        -9.9987   -3.6257   56.8710 H       1  ZINC000772422035    0.0900
     43 H43       -10.7957   -3.6929   55.2808 H       1  ZINC000772422035    0.0900
     44 H44       -10.5659   -2.1272   56.0955 H       1  ZINC000772422035    0.0900
     45 H45       -14.6824   -2.9926   60.1387 H       1  ZINC000772422035    0.0800
     46 H46       -14.9100   -1.5252   59.1572 H       1  ZINC000772422035    0.0800
     47 H47       -15.9099   -2.9654   58.8500 H       1  ZINC000772422035    0.0800
     48 H48        -7.1811   -0.9875   62.7487 H       1  ZINC000772422035    0.1400
     49 H49        -7.1972   -0.8616   65.2052 H       1  ZINC000772422035    0.1700
@<TRIPOS>BOND
     1     1     2    1
     2     1    27    1
     3     1    28    1
     4     1    29    1
     5     2     3    1
     6     3     4    1
     7     3    30    1
     8     3    31    1
     9     4     5    1
    10     4    32    1
    11     4    33    1
    12     5     6    1
    13     6    26   ar
    14     6     7   ar
    15     7     8   ar
    16     7    34    1
    17     8     9    1
    18     8    24   ar
    19     9    10    1
    20     9    35    1
    21     9    36    1
    22    10    11    1
    23    11    12    2
    24    11    13    1
    25    13    14    1
    26    13    37    1
    27    13    38    1
    28    14    15    1
    29    14    16    1
    30    14    17    1
    31    16    39    1
    32    16    40    1
    33    16    41    1
    34    17    22    1
    35    17    18    2
    36    18    19    1
    37    18    20    1
    38    19    42    1
    39    19    43    1
    40    19    44    1
    41    20    21    1
    42    21    22    2
    43    22    23    1
    44    23    45    1
    45    23    46    1
    46    23    47    1
    47    24    25   ar
    48    24    48    1
    49    25    26   ar
    50    25    49    1
@<TRIPOS>SUBSTRUCTURE
     1 ZINC000772422035        1 TEMP              0 ****  ****    0 ROOT


##########                                Name:    ZINC000767361237
##########                DOCK_Rotatable_Bonds:                  10
##########                         Heavy_Atoms:                  30
##########                    Molecular_Weight:             409.439
##########                DOCK_Rotatable_Bonds:                  10
##########                       Formal_Charge:          -0.0300005
##########                     HBond_Acceptors:                   7
##########                        HBond_Donors:                   1
##########                         Heavy_Atoms:                  30
##########                          Grid_Score:          -33.480801
##########                     Grid_vdw_energy:          -33.955746
##########                      Grid_es_energy:            0.474944
##########           Internal_energy_repulsive:           17.410360

@<TRIPOS>MOLECULE
ZINC000767361237
 53 55 1 0 0
SMALL
USER_CHARGES


@<TRIPOS>ATOM
      1 C1         -8.3972    0.3979   66.5734 C.3     1  ZINC000767361237   -0.1200
      2 C2         -8.7635    0.5287   65.1174 C.ar    1  ZINC000767361237   -0.0900
      3 C3         -8.2042   -0.3246   64.1847 C.ar    1  ZINC000767361237   -0.1200
      4 C4         -8.5402   -0.2047   62.8491 C.ar    1  ZINC000767361237   -0.1100
      5 C5         -9.4356    0.7684   62.4463 C.ar    1  ZINC000767361237   -0.0800
      6 C6         -9.8015    0.8994   60.9903 C.3     1  ZINC000767361237   -0.0800
      7 H7         -9.0897    0.3383   60.3850 H       1  ZINC000767361237    0.0900
      8 C8         -9.7636    2.3745   60.5858 C.3     1  ZINC000767361237   -0.1500
      9 C9        -11.2098    0.3452   60.7664 C.3     1  ZINC000767361237    0.1300
     10 H10       -11.7173    0.9389   60.0060 H       1  ZINC000767361237    0.1400
     11 O11       -11.9463    0.4076   61.9894 O.3     1  ZINC000767361237   -0.5200
     12 C12       -11.1188   -1.0873   60.3074 C.2     1  ZINC000767361237    0.4300
     13 O13       -10.2629   -1.8124   60.7565 O.2     1  ZINC000767361237   -0.5000
     14 O14       -11.9886   -1.5578   59.3996 O.3     1  ZINC000767361237   -0.3300
     15 C15       -11.4979   -2.5662   58.4774 C.3     1  ZINC000767361237    0.0100
     16 C16       -11.6179   -2.0558   57.0646 C.2     1  ZINC000767361237    0.3700
     17 O17       -12.6922   -2.0528   56.5129 O.2     1  ZINC000767361237   -0.4200
     18 C18       -10.3974   -1.5493   56.3402 C.3     1  ZINC000767361237   -0.1800
     19 C19       -10.8004   -0.4195   55.3902 C.3     1  ZINC000767361237    0.1200
     20 N20        -9.6094    0.0936   54.7088 N.am    1  ZINC000767361237   -0.5800
     21 C21        -8.9336    1.1949   55.0830 C.2     1  ZINC000767361237    0.5700
     22 O22        -9.2097    1.9102   56.0248 O.2     1  ZINC000767361237   -0.4600
     23 C23        -7.7980    1.3882   54.1567 C.ar    1  ZINC000767361237   -0.1400
     24 C24        -6.7855    2.3276   54.0500 C.ar    1  ZINC000767361237   -0.0400
     25 C25        -5.8497    2.2171   53.0328 C.ar    1  ZINC000767361237   -0.0900
     26 C26        -5.9207    1.1770   52.1258 C.ar    1  ZINC000767361237   -0.0900
     27 C27        -6.9284    0.2294   52.2202 C.ar    1  ZINC000767361237   -0.0400
     28 C28        -7.8703    0.3270   53.2313 C.ar    1  ZINC000767361237   -0.1400
     29 C29        -9.0443   -0.4777   53.6299 C.2     1  ZINC000767361237    0.5700
     30 O30        -9.4347   -1.4851   53.0750 O.2     1  ZINC000767361237   -0.4600
     31 C31        -9.9960    1.6208   63.3792 C.ar    1  ZINC000767361237   -0.1100
     32 C32        -9.6630    1.4983   64.7154 C.ar    1  ZINC000767361237   -0.1200
     33 H33        -9.0832   -0.2957   67.0597 H       1  ZINC000767361237    0.0700
     34 H34        -7.3781    0.0211   66.6593 H       1  ZINC000767361237    0.0700
     35 H35        -8.4657    1.3737   67.0543 H       1  ZINC000767361237    0.0700
     36 H36        -7.5046   -1.0848   64.4994 H       1  ZINC000767361237    0.1200
     37 H37        -8.1026   -0.8709   62.1204 H       1  ZINC000767361237    0.1200
     38 H38       -10.0282    2.4693   59.5327 H       1  ZINC000767361237    0.0800
     39 H39       -10.4754    2.9357   61.1913 H       1  ZINC000767361237    0.0700
     40 H40        -8.7602    2.7694   60.7454 H       1  ZINC000767361237    0.0600
     41 H41       -11.5971   -0.1621   62.6884 H       1  ZINC000767361237    0.3900
     42 H42       -10.4526   -2.7826   58.6980 H       1  ZINC000767361237    0.1100
     43 H43       -12.0881   -3.4761   58.5864 H       1  ZINC000767361237    0.1100
     44 H44        -9.6745   -1.1743   57.0646 H       1  ZINC000767361237    0.1100
     45 H45        -9.9505   -2.3626   55.7685 H       1  ZINC000767361237    0.1100
     46 H46       -11.5059   -0.8001   54.6517 H       1  ZINC000767361237    0.1100
     47 H47       -11.2680    0.3841   55.9591 H       1  ZINC000767361237    0.1100
     48 H48        -6.7255    3.1427   54.7559 H       1  ZINC000767361237    0.1400
     49 H49        -5.0603    2.9491   52.9486 H       1  ZINC000767361237    0.1400
     50 H50        -5.1861    1.1018   51.3376 H       1  ZINC000767361237    0.1400
     51 H51        -6.9787   -0.5816   51.5087 H       1  ZINC000767361237    0.1400
     52 H52       -10.6959    2.3807   63.0646 H       1  ZINC000767361237    0.1200
     53 H53       -10.1007    2.1643   65.4442 H       1  ZINC000767361237    0.1200
@<TRIPOS>BOND
     1     1     2    1
     2     1    33    1
     3     1    34    1
     4     1    35    1
     5     2    32   ar
     6     2     3   ar
     7     3     4   ar
     8     3    36    1
     9     4     5   ar
    10     4    37    1
    11     5     6    1
    12     5    31   ar
    13     6     7    1
    14     6     8    1
    15     6     9    1
    16     8    38    1
    17     8    39    1
    18     8    40    1
    19     9    10    1
    20     9    11    1
    21     9    12    1
    22    11    41    1
    23    12    13    2
    24    12    14    1
    25    14    15    1
    26    15    16    1
    27    15    42    1
    28    15    43    1
    29    16    17    2
    30    16    18    1
    31    18    19    1
    32    18    44    1
    33    18    45    1
    34    19    20    1
    35    19    46    1
    36    19    47    1
    37    20    29   am
    38    20    21   am
    39    21    22    2
    40    21    23    1
    41    23    28   ar
    42    23    24   ar
    43    24    25   ar
    44    24    48    1
    45    25    26   ar
    46    25    49    1
    47    26    27   ar
    48    26    50    1
    49    27    28   ar
    50    27    51    1
    51    28    29    1
    52    29    30    2
    53    31    32   ar
    54    31    52    1
    55    32    53    1
@<TRIPOS>SUBSTRUCTURE
     1 ZINC000767361237        1 TEMP              0 ****  ****    0 ROOT


##########                                Name:    ZINC000546142192
##########                DOCK_Rotatable_Bonds:                  12
##########                         Heavy_Atoms:                  31
##########                    Molecular_Weight:             420.511
##########                DOCK_Rotatable_Bonds:                  12
##########                       Formal_Charge:          -0.0599997
##########                     HBond_Acceptors:                   7
##########                        HBond_Donors:                   2
##########                         Heavy_Atoms:                  31
##########                          Grid_Score:          -33.480385
##########                     Grid_vdw_energy:          -32.100452
##########                      Grid_es_energy:           -1.379932
##########           Internal_energy_repulsive:            9.478528

@<TRIPOS>MOLECULE
ZINC000546142192
 59 61 1 0 0
SMALL
USER_CHARGES


@<TRIPOS>ATOM
      1 C1        -15.4062   -3.3803   59.4529 C.3     1  ZINC000546142192    0.0300
      2 O2        -14.1642   -2.9688   58.8231 O.3     1  ZINC000546142192   -0.3600
      3 C3        -13.5200   -1.9258   59.3698 C.2     1  ZINC000546142192    0.4600
      4 O4        -14.0185   -1.3232   60.2909 O.2     1  ZINC000546142192   -0.5100
      5 C5        -12.1750   -1.5065   58.8349 C.3     1  ZINC000546142192   -0.0800
      6 H6        -11.8130   -0.6454   59.3965 H       1  ZINC000546142192    0.1100
      7 C7        -11.1848   -2.6636   58.9809 C.3     1  ZINC000546142192   -0.1500
      8 C8        -12.3081   -1.1323   57.3572 C.3     1  ZINC000546142192   -0.0600
      9 C9        -11.0909   -0.3563   56.9240 C.ar    1  ZINC000546142192   -0.1000
     10 C10       -10.9143    0.9462   57.3532 C.ar    1  ZINC000546142192   -0.0900
     11 C11        -9.7997    1.6599   56.9583 C.ar    1  ZINC000546142192   -0.1200
     12 C12        -8.8559    1.0679   56.1295 C.ar    1  ZINC000546142192    0.1600
     13 N13        -7.7251    1.7881   55.7279 N.am    1  ZINC000546142192   -0.6900
     14 C14        -6.6934    1.9523   56.5793 C.2     1  ZINC000546142192    0.7100
     15 O15        -6.7450    1.4748   57.6963 O.2     1  ZINC000546142192   -0.5700
     16 N16        -5.6044    2.6459   56.1927 N.am    1  ZINC000546142192   -0.7400
     17 C17        -4.4836    2.8258   57.1188 C.3     1  ZINC000546142192    0.2300
     18 C18        -3.2284    3.1179   56.3376 C.2     1  ZINC000546142192    0.1800
     19 N19        -3.1818    3.5652   55.1126 N.2     1  ZINC000546142192   -0.4700
     20 C20        -1.9006    3.7081   54.7422 C.2     1  ZINC000546142192   -0.0300
     21 C21        -1.1237    3.3350   55.7771 C.2     1  ZINC000546142192   -0.0400
     22 N22        -1.9656    2.9657   56.7913 N.pl3   1  ZINC000546142192   -0.4500
     23 C23        -1.5704    2.4864   58.1181 C.3     1  ZINC000546142192    0.1100
     24 C24        -0.4148    3.3393   58.6451 C.3     1  ZINC000546142192   -0.0900
     25 C25         0.1002    2.7476   59.9319 C.ar    1  ZINC000546142192   -0.0900
     26 C26        -0.2611    3.3070   61.1433 C.ar    1  ZINC000546142192   -0.1100
     27 C27         0.2114    2.7641   62.3235 C.ar    1  ZINC000546142192   -0.1200
     28 C28         1.0447    1.6616   62.2924 C.ar    1  ZINC000546142192   -0.1200
     29 C29         1.4052    1.1017   61.0810 C.ar    1  ZINC000546142192   -0.1200
     30 C30         0.9293    1.6419   59.9010 C.ar    1  ZINC000546142192   -0.1100
     31 C31        -9.0361   -0.2404   55.7002 C.ar    1  ZINC000546142192   -0.1500
     32 C32       -10.1502   -0.9504   56.1028 C.ar    1  ZINC000546142192   -0.0900
     33 H33       -16.1159   -2.5534   59.4311 H       1  ZINC000546142192    0.0600
     34 H34       -15.8226   -4.2310   58.9137 H       1  ZINC000546142192    0.1000
     35 H35       -15.2121   -3.6652   60.4870 H       1  ZINC000546142192    0.0600
     36 H36       -11.5468   -3.5247   58.4191 H       1  ZINC000546142192    0.0600
     37 H37       -10.2120   -2.3603   58.5938 H       1  ZINC000546142192    0.0800
     38 H38       -11.0900   -2.9301   60.0335 H       1  ZINC000546142192    0.0700
     39 H39       -12.3925   -2.0395   56.7589 H       1  ZINC000546142192    0.0800
     40 H40       -13.1986   -0.5198   57.2162 H       1  ZINC000546142192    0.0800
     41 H41       -11.6489    1.4061   57.9976 H       1  ZINC000546142192    0.1300
     42 H42        -9.6626    2.6773   57.2936 H       1  ZINC000546142192    0.1400
     43 H43        -7.6840    2.1692   54.8368 H       1  ZINC000546142192    0.4100
     44 H44        -5.5627    3.0258   55.3012 H       1  ZINC000546142192    0.4000
     45 H45        -4.6963    3.6587   57.7892 H       1  ZINC000546142192    0.0800
     46 H46        -4.3448    1.9158   57.7024 H       1  ZINC000546142192    0.1000
     47 H47        -1.5529    4.0604   53.7823 H       1  ZINC000546142192    0.1700
     48 H48        -0.0441    3.3319   55.8033 H       1  ZINC000546142192    0.1800
     49 H49        -2.4181    2.5623   58.7992 H       1  ZINC000546142192    0.1000
     50 H50        -1.2522    1.4463   58.0488 H       1  ZINC000546142192    0.0900
     51 H51         0.3877    3.3596   57.9076 H       1  ZINC000546142192    0.0800
     52 H52        -0.7664    4.3549   58.8273 H       1  ZINC000546142192    0.0800
     53 H53        -0.9121    4.1684   61.1675 H       1  ZINC000546142192    0.1200
     54 H54        -0.0704    3.2017   63.2699 H       1  ZINC000546142192    0.1200
     55 H55         1.4143    1.2380   63.2145 H       1  ZINC000546142192    0.1200
     56 H56         2.0565    0.2405   61.0568 H       1  ZINC000546142192    0.1200
     57 H57         1.2110    1.2045   58.9545 H       1  ZINC000546142192    0.1200
     58 H58        -8.3037   -0.7035   55.0555 H       1  ZINC000546142192    0.1300
     59 H59       -10.2908   -1.9682   55.7697 H       1  ZINC000546142192    0.1300
@<TRIPOS>BOND
     1     1     2    1
     2     1    33    1
     3     1    34    1
     4     1    35    1
     5     2     3    1
     6     3     4    2
     7     3     5    1
     8     5     6    1
     9     5     7    1
    10     5     8    1
    11     7    36    1
    12     7    37    1
    13     7    38    1
    14     8     9    1
    15     8    39    1
    16     8    40    1
    17     9    32   ar
    18     9    10   ar
    19    10    11   ar
    20    10    41    1
    21    11    12   ar
    22    11    42    1
    23    12    13    1
    24    12    31   ar
    25    13    14   am
    26    13    43    1
    27    14    15    2
    28    14    16   am
    29    16    17    1
    30    16    44    1
    31    17    18    1
    32    17    45    1
    33    17    46    1
    34    18    22    1
    35    18    19    2
    36    19    20    1
    37    20    21    2
    38    20    47    1
    39    21    22    1
    40    21    48    1
    41    22    23    1
    42    23    24    1
    43    23    49    1
    44    23    50    1
    45    24    25    1
    46    24    51    1
    47    24    52    1
    48    25    30   ar
    49    25    26   ar
    50    26    27   ar
    51    26    53    1
    52    27    28   ar
    53    27    54    1
    54    28    29   ar
    55    28    55    1
    56    29    30   ar
    57    29    56    1
    58    30    57    1
    59    31    32   ar
    60    31    58    1
    61    32    59    1
@<TRIPOS>SUBSTRUCTURE
     1 ZINC000546142192        1 TEMP              0 ****  ****    0 ROOT


##########                                Name:    ZINC000464139057
##########                DOCK_Rotatable_Bonds:                   9
##########                         Heavy_Atoms:                  30
##########                    Molecular_Weight:              413.56
##########                DOCK_Rotatable_Bonds:                   9
##########                       Formal_Charge:         2.38419e-07
##########                     HBond_Acceptors:                   6
##########                        HBond_Donors:                   2
##########                         Heavy_Atoms:                  30
##########                          Grid_Score:          -33.472988
##########                     Grid_vdw_energy:          -32.522861
##########                      Grid_es_energy:           -0.950127
##########           Internal_energy_repulsive:           20.920506

@<TRIPOS>MOLECULE
ZINC000464139057
 65 67 1 0 0
SMALL
USER_CHARGES


@<TRIPOS>ATOM
      1 C1        -12.6704    1.4420   60.4064 C.3     1  ZINC000464139057   -0.1800
      2 C2        -13.1126    0.7386   59.1217 C.3     1  ZINC000464139057    0.0700
      3 H3        -13.5889    1.4597   58.4573 H       1  ZINC000464139057    0.1200
      4 C4        -11.8906    0.1296   58.4247 C.3     1  ZINC000464139057    0.0800
      5 N5        -11.3781   -0.9673   59.2610 N.am    1  ZINC000464139057   -0.6100
      6 C6        -10.0738   -1.0350   59.5935 C.2     1  ZINC000464139057    0.5600
      7 O7         -9.6695   -1.9489   60.2853 O.2     1  ZINC000464139057   -0.5300
      8 C8         -9.1345    0.0025   59.1167 C.ar    1  ZINC000464139057   -0.1200
      9 C9         -8.6343   -0.0498   57.8147 C.ar    1  ZINC000464139057   -0.0900
     10 C10        -7.7586    0.9217   57.3760 C.ar    1  ZINC000464139057   -0.1000
     11 C11        -7.3758    1.9460   58.2236 C.ar    1  ZINC000464139057   -0.0900
     12 C12        -6.4184    3.0036   57.7375 C.3     1  ZINC000464139057    0.1800
     13 N13        -5.2328    2.3625   57.1637 N.am    1  ZINC000464139057   -0.7400
     14 C14        -4.0035    2.8241   57.4675 C.2     1  ZINC000464139057    0.7000
     15 O15        -3.8785    3.7717   58.2190 O.2     1  ZINC000464139057   -0.5900
     16 N16        -2.9128    2.2353   56.9383 N.am    1  ZINC000464139057   -0.7500
     17 C17        -1.5767    2.7382   57.2671 C.3     1  ZINC000464139057    0.1400
     18 C18        -1.0077    1.9428   58.4437 C.3     1  ZINC000464139057   -0.0900
     19 C19         0.2729    2.5848   58.9116 C.2     1  ZINC000464139057   -0.1200
     20 C20         0.7365    2.3133   60.0902 C.2     1  ZINC000464139057   -0.1500
     21 C21         2.0217    2.9511   60.5725 C.3     1  ZINC000464139057   -0.0900
     22 C22         3.1931    2.3252   59.8123 C.3     1  ZINC000464139057   -0.1100
     23 C23         3.4194    3.0385   58.4910 C.3     1  ZINC000464139057   -0.1200
     24 C24         2.2839    2.8575   57.4992 C.3     1  ZINC000464139057   -0.1100
     25 C25         1.0139    3.5387   57.9992 C.3     1  ZINC000464139057   -0.0800
     26 C26        -7.8682    2.0040   59.5153 C.ar    1  ZINC000464139057   -0.1000
     27 C27        -8.7487    1.0418   59.9648 C.ar    1  ZINC000464139057   -0.0700
     28 C28       -12.3318   -1.9879   59.7238 C.3     1  ZINC000464139057    0.0700
     29 C29       -13.5323   -1.2757   60.3575 C.3     1  ZINC000464139057    0.0700
     30 H30       -13.2188   -0.7820   61.2773 H       1  ZINC000464139057    0.0700
     31 C31       -14.6250   -2.2990   60.6736 C.3     1  ZINC000464139057   -0.1500
     32 O32       -14.0401   -0.3012   59.4416 O.3     1  ZINC000464139057   -0.3700
     33 H33       -12.1942    0.7203   61.0703 H       1  ZINC000464139057    0.0600
     34 H34       -11.9620    2.2335   60.1620 H       1  ZINC000464139057    0.0700
     35 H35       -13.5400    1.8732   60.9024 H       1  ZINC000464139057    0.0700
     36 H36       -12.1803   -0.2579   57.4479 H       1  ZINC000464139057    0.0800
     37 H37       -11.1195    0.8906   58.3043 H       1  ZINC000464139057    0.1000
     38 H38        -8.9318   -0.8493   57.1524 H       1  ZINC000464139057    0.1300
     39 H39        -7.3708    0.8824   56.3687 H       1  ZINC000464139057    0.1300
     40 H40        -6.9060    3.6131   56.9767 H       1  ZINC000464139057    0.0800
     41 H41        -6.1206    3.6361   58.5738 H       1  ZINC000464139057    0.0800
     42 H42        -5.3324    1.6057   56.5651 H       1  ZINC000464139057    0.4000
     43 H43        -3.0125    1.4785   56.3396 H       1  ZINC000464139057    0.4000
     44 H44        -0.9229    2.6252   56.4023 H       1  ZINC000464139057    0.0700
     45 H45        -1.6416    3.7919   57.5383 H       1  ZINC000464139057    0.0700
     46 H46        -1.7298    1.9354   59.2603 H       1  ZINC000464139057    0.0700
     47 H47        -0.8066    0.9194   58.1272 H       1  ZINC000464139057    0.0800
     48 H48         0.2029    1.6282   60.7324 H       1  ZINC000464139057    0.1100
     49 H49         1.9922    4.0237   60.3808 H       1  ZINC000464139057    0.0700
     50 H50         2.1410    2.7711   61.6409 H       1  ZINC000464139057    0.0700
     51 H51         4.0954    2.3994   60.4192 H       1  ZINC000464139057    0.0600
     52 H52         2.9759    1.2745   59.6203 H       1  ZINC000464139057    0.0600
     53 H53         3.5449    4.1034   58.6867 H       1  ZINC000464139057    0.0600
     54 H54         4.3376    2.6588   58.0428 H       1  ZINC000464139057    0.0600
     55 H55         2.5713    3.2917   56.5416 H       1  ZINC000464139057    0.0600
     56 H56         2.0899    1.7932   57.3661 H       1  ZINC000464139057    0.0600
     57 H57         0.3805    3.7994   57.1513 H       1  ZINC000464139057    0.0700
     58 H58         1.2761    4.4396   58.5540 H       1  ZINC000464139057    0.0700
     59 H59        -7.5657    2.8064   60.1718 H       1  ZINC000464139057    0.1300
     60 H60        -9.1327    1.0883   60.9732 H       1  ZINC000464139057    0.1300
     61 H61       -12.6659   -2.5886   58.8778 H       1  ZINC000464139057    0.0800
     62 H62       -11.8529   -2.6292   60.4637 H       1  ZINC000464139057    0.1000
     63 H63       -14.2360   -3.0429   61.3687 H       1  ZINC000464139057    0.0800
     64 H64       -15.4782   -1.7919   61.1241 H       1  ZINC000464139057    0.0700
     65 H65       -14.9393   -2.7910   59.7532 H       1  ZINC000464139057    0.0700
@<TRIPOS>BOND
     1     1     2    1
     2     1    33    1
     3     1    34    1
     4     1    35    1
     5     2     3    1
     6     2    32    1
     7     2     4    1
     8     4     5    1
     9     4    36    1
    10     4    37    1
    11     5     6   am
    12     5    28    1
    13     6     7    2
    14     6     8    1
    15     8    27   ar
    16     8     9   ar
    17     9    10   ar
    18     9    38    1
    19    10    11   ar
    20    10    39    1
    21    11    12    1
    22    11    26   ar
    23    12    13    1
    24    12    40    1
    25    12    41    1
    26    13    14   am
    27    13    42    1
    28    14    15    2
    29    14    16   am
    30    16    17    1
    31    16    43    1
    32    17    18    1
    33    17    44    1
    34    17    45    1
    35    18    19    1
    36    18    46    1
    37    18    47    1
    38    19    25    1
    39    19    20    2
    40    20    21    1
    41    20    48    1
    42    21    22    1
    43    21    49    1
    44    21    50    1
    45    22    23    1
    46    22    51    1
    47    22    52    1
    48    23    24    1
    49    23    53    1
    50    23    54    1
    51    24    25    1
    52    24    55    1
    53    24    56    1
    54    25    57    1
    55    25    58    1
    56    26    27   ar
    57    26    59    1
    58    27    60    1
    59    28    29    1
    60    28    61    1
    61    28    62    1
    62    29    30    1
    63    29    31    1
    64    29    32    1
    65    31    63    1
    66    31    64    1
    67    31    65    1
@<TRIPOS>SUBSTRUCTURE
     1 ZINC000464139057        1 TEMP              0 ****  ****    0 ROOT


##########                                Name:    ZINC000642096826
##########                DOCK_Rotatable_Bonds:                  12
##########                         Heavy_Atoms:                  25
##########                    Molecular_Weight:             345.485
##########                DOCK_Rotatable_Bonds:                  12
##########                       Formal_Charge:          0.00999919
##########                     HBond_Acceptors:                   5
##########                        HBond_Donors:                   1
##########                         Heavy_Atoms:                  25
##########                          Grid_Score:          -33.470016
##########                     Grid_vdw_energy:          -32.753757
##########                      Grid_es_energy:           -0.716261
##########           Internal_energy_repulsive:           27.872290

@<TRIPOS>MOLECULE
ZINC000642096826
 56 57 1 0 0
SMALL
USER_CHARGES


@<TRIPOS>ATOM
      1 C1        -10.4108    1.1373   61.9035 C.3     1  ZINC000642096826   -0.1500
      2 C2         -8.9881    0.6562   61.6113 C.3     1  ZINC000642096826   -0.1400
      3 C3         -9.0365   -0.7629   61.0415 C.3     1  ZINC000642096826    0.1200
      4 N4         -9.7757   -0.7562   59.7767 N.am    1  ZINC000642096826   -0.6200
      5 C5         -9.4321    0.2124   58.7326 C.3     1  ZINC000642096826    0.1100
      6 C6         -7.9133    0.2508   58.5522 C.3     1  ZINC000642096826   -0.1400
      7 C7         -7.5546    1.2614   57.4610 C.3     1  ZINC000642096826   -0.1500
      8 C8        -10.7716   -1.6412   59.5734 C.2     1  ZINC000642096826    0.5200
      9 O9        -11.0571   -2.4420   60.4382 O.2     1  ZINC000642096826   -0.5200
     10 C10       -11.5308   -1.6354   58.2715 C.3     1  ZINC000642096826    0.0400
     11 N11       -10.6972   -2.2258   57.2159 N.3     1  ZINC000642096826   -0.5200
     12 C12       -10.3653   -3.6227   57.5269 C.3     1  ZINC000642096826    0.0100
     13 C13       -11.3533   -2.1198   55.9059 C.3     1  ZINC000642096826    0.0900
     14 C14       -10.5594   -1.1946   55.0199 C.ar    1  ZINC000642096826   -0.0500
     15 C15        -9.7210   -1.7189   54.0522 C.ar    1  ZINC000642096826   -0.1000
     16 C16        -8.9911   -0.8776   53.2382 C.ar    1  ZINC000642096826   -0.0600
     17 C17        -9.1001    0.5054   53.3924 C.ar    1  ZINC000642096826   -0.1400
     18 C18        -8.3212    1.4130   52.5233 C.2     1  ZINC000642096826    0.5600
     19 O19        -8.8005    2.4706   52.1642 O.2     1  ZINC000642096826   -0.5300
     20 N20        -7.0795    1.0676   52.1292 N.am    1  ZINC000642096826   -0.7000
     21 C21        -6.3082    1.9661   51.2666 C.3     1  ZINC000642096826    0.0800
     22 C22        -5.4698    3.0507   51.9460 C.3     1  ZINC000642096826   -0.1900
     23 C23        -4.7835    1.8440   51.3028 C.3     1  ZINC000642096826   -0.1900
     24 C24        -9.9479    1.0277   54.3704 C.ar    1  ZINC000642096826   -0.0900
     25 C25       -10.6762    0.1753   55.1742 C.ar    1  ZINC000642096826   -0.1200
     26 H26       -10.9915    1.1359   60.9810 H       1  ZINC000642096826    0.0600
     27 H27       -10.8782    0.4706   62.6280 H       1  ZINC000642096826    0.0600
     28 H28       -10.3763    2.1483   62.3095 H       1  ZINC000642096826    0.0600
     29 H29        -8.5207    1.3230   60.8867 H       1  ZINC000642096826    0.0600
     30 H30        -8.4074    0.6577   62.5338 H       1  ZINC000642096826    0.0600
     31 H31        -8.0213   -1.1193   60.8672 H       1  ZINC000642096826    0.0800
     32 H32        -9.5364   -1.4224   61.7509 H       1  ZINC000642096826    0.0800
     33 H33        -9.9021   -0.0825   57.7944 H       1  ZINC000642096826    0.0800
     34 H34        -9.7887    1.2009   59.0225 H       1  ZINC000642096826    0.0800
     35 H35        -7.4434    0.5469   59.4901 H       1  ZINC000642096826    0.0700
     36 H36        -7.5566   -0.7378   58.2633 H       1  ZINC000642096826    0.0700
     37 H37        -6.4726    1.2887   57.3325 H       1  ZINC000642096826    0.0600
     38 H38        -8.0246    0.9654   56.5230 H       1  ZINC000642096826    0.0600
     39 H39        -7.9113    2.2501   57.7499 H       1  ZINC000642096826    0.0600
     40 H40       -12.4450   -2.2185   58.3814 H       1  ZINC000642096826    0.0600
     41 H41       -11.7841   -0.6097   58.0033 H       1  ZINC000642096826    0.1000
     42 H42       -11.2833   -4.2037   57.6132 H       1  ZINC000642096826    0.0200
     43 H43        -9.7476   -4.0355   56.7294 H       1  ZINC000642096826    0.0700
     44 H44        -9.8184   -3.6652   58.4688 H       1  ZINC000642096826    0.0900
     45 H45       -11.4070   -3.1063   55.4456 H       1  ZINC000642096826    0.0500
     46 H46       -12.3605   -1.7236   56.0350 H       1  ZINC000642096826    0.0900
     47 H47        -9.6376   -2.7892   53.9339 H       1  ZINC000642096826    0.1300
     48 H48        -8.3364   -1.2881   52.4836 H       1  ZINC000642096826    0.1400
     49 H49        -6.6964    0.2241   52.4168 H       1  ZINC000642096826    0.4000
     50 H50        -6.7708    2.2120   50.3108 H       1  ZINC000642096826    0.1400
     51 H51        -5.3809    4.0106   51.4374 H       1  ZINC000642096826    0.1000
     52 H52        -5.4921    3.0958   53.0349 H       1  ZINC000642096826    0.1000
     53 H53        -4.3542    1.0952   51.9686 H       1  ZINC000642096826    0.1000
     54 H54        -4.2429    2.0100   50.3709 H       1  ZINC000642096826    0.1100
     55 H55       -10.0365    2.0969   54.4949 H       1  ZINC000642096826    0.1200
     56 H56       -11.3329    0.5782   55.9311 H       1  ZINC000642096826    0.1300
@<TRIPOS>BOND
     1     1     2    1
     2     1    26    1
     3     1    27    1
     4     1    28    1
     5     2     3    1
     6     2    29    1
     7     2    30    1
     8     3     4    1
     9     3    31    1
    10     3    32    1
    11     4     5    1
    12     4     8   am
    13     5     6    1
    14     5    33    1
    15     5    34    1
    16     6     7    1
    17     6    35    1
    18     6    36    1
    19     7    37    1
    20     7    38    1
    21     7    39    1
    22     8     9    2
    23     8    10    1
    24    10    11    1
    25    10    40    1
    26    10    41    1
    27    11    12    1
    28    11    13    1
    29    12    42    1
    30    12    43    1
    31    12    44    1
    32    13    14    1
    33    13    45    1
    34    13    46    1
    35    14    25   ar
    36    14    15   ar
    37    15    16   ar
    38    15    47    1
    39    16    17   ar
    40    16    48    1
    41    17    18    1
    42    17    24   ar
    43    18    19    2
    44    18    20   am
    45    20    21    1
    46    20    49    1
    47    21    23    1
    48    21    22    1
    49    21    50    1
    50    22    23    1
    51    22    51    1
    52    22    52    1
    53    23    53    1
    54    23    54    1
    55    24    25   ar
    56    24    55    1
    57    25    56    1
@<TRIPOS>SUBSTRUCTURE
     1 ZINC000642096826        1 TEMP              0 ****  ****    0 ROOT


##########                                Name:    ZINC001169875900
##########                DOCK_Rotatable_Bonds:                   9
##########                         Heavy_Atoms:                  24
##########                    Molecular_Weight:             329.399
##########                DOCK_Rotatable_Bonds:                   9
##########                       Formal_Charge:          -0.0500002
##########                     HBond_Acceptors:                   6
##########                        HBond_Donors:                   1
##########                         Heavy_Atoms:                  24
##########                          Grid_Score:          -33.421040
##########                     Grid_vdw_energy:          -28.756405
##########                      Grid_es_energy:           -4.664635
##########           Internal_energy_repulsive:            7.943419

@<TRIPOS>MOLECULE
ZINC001169875900
 47 48 1 0 0
SMALL
USER_CHARGES


@<TRIPOS>ATOM
      1 C1         -9.9546   -0.9717   53.1339 C.3     1  ZINC001169875900   -0.1500
      2 C2         -9.0129    0.0934   53.6992 C.3     1  ZINC001169875900   -0.1300
      3 C3         -9.0032    0.0065   55.2267 C.3     1  ZINC001169875900    0.0700
      4 O4         -8.4173    1.1924   55.7675 O.3     1  ZINC001169875900   -0.3100
      5 C5         -8.5203    1.3742   57.1091 C.ar    1  ZINC001169875900    0.2700
      6 N6         -9.5527    0.8660   57.7598 N.ar    1  ZINC001169875900   -0.5000
      7 C7         -9.6976    1.0227   59.0621 C.ar    1  ZINC001169875900    0.0600
      8 C8         -8.7587    1.7277   59.7998 C.ar    1  ZINC001169875900    0.1400
      9 N9         -8.9190    1.8904   61.1809 N.pl3   1  ZINC001169875900   -0.7400
     10 C10        -9.3437    0.7578   62.0074 C.3     1  ZINC001169875900    0.1800
     11 C11        -9.1870    1.1121   63.4638 C.ar    1  ZINC001169875900    0.1000
     12 C12        -9.5089    2.3892   63.8949 C.ar    1  ZINC001169875900   -0.1200
     13 C13        -9.3632    2.7109   65.2355 C.ar    1  ZINC001169875900   -0.0800
     14 C14        -8.8971    1.7353   66.1024 C.ar    1  ZINC001169875900   -0.1000
     15 C15        -8.5928    0.4720   65.5992 C.ar    1  ZINC001169875900    0.0900
     16 C16        -8.0936   -0.5813   66.5124 C.2     1  ZINC001169875900    0.5200
     17 O17        -8.6726   -1.6462   66.5849 O.2     1  ZINC001169875900   -0.5000
     18 O18        -6.9974   -0.3584   67.2623 O.3     1  ZINC001169875900   -0.3300
     19 C19        -5.9719    0.4971   66.6927 C.3     1  ZINC001169875900    0.0600
     20 C20        -4.8136    0.6336   67.6831 C.3     1  ZINC001169875900   -0.1500
     21 N21        -8.7516    0.2036   64.3089 N.ar    1  ZINC001169875900   -0.4200
     22 C22        -7.6536    2.2728   59.1484 C.ar    1  ZINC001169875900   -0.1200
     23 C23        -7.5368    2.0873   57.7824 C.ar    1  ZINC001169875900   -0.1000
     24 C24        -6.3600    2.6572   57.0332 C.3     1  ZINC001169875900   -0.1000
     25 H25       -10.9624   -0.8042   53.5138 H       1  ZINC001169875900    0.0600
     26 H26        -9.9616   -0.9098   52.0457 H       1  ZINC001169875900    0.0600
     27 H27        -9.6108   -1.9598   53.4393 H       1  ZINC001169875900    0.0600
     28 H28        -9.3569    1.0816   53.3937 H       1  ZINC001169875900    0.0700
     29 H29        -8.0051   -0.0741   53.3193 H       1  ZINC001169875900    0.0700
     30 H30        -8.4207   -0.8608   55.5376 H       1  ZINC001169875900    0.0600
     31 H31       -10.0255   -0.0926   55.5916 H       1  ZINC001169875900    0.0600
     32 H32       -10.5572    0.5973   59.5587 H       1  ZINC001169875900    0.1500
     33 H33        -8.7488    2.7529   61.5906 H       1  ZINC001169875900    0.4000
     34 H34       -10.3889    0.5282   61.7998 H       1  ZINC001169875900    0.0800
     35 H35        -8.7280   -0.1115   61.7767 H       1  ZINC001169875900    0.0800
     36 H36        -9.8695    3.1268   63.1932 H       1  ZINC001169875900    0.1500
     37 H37        -9.6078    3.6991   65.5960 H       1  ZINC001169875900    0.1500
     38 H38        -8.7712    1.9512   67.1532 H       1  ZINC001169875900    0.1500
     39 H39        -5.6064    0.0576   65.7646 H       1  ZINC001169875900    0.0700
     40 H40        -6.3925    1.4815   66.4876 H       1  ZINC001169875900    0.0700
     41 H41        -5.1791    1.0730   68.6112 H       1  ZINC001169875900    0.0700
     42 H42        -4.3930   -0.3509   67.8881 H       1  ZINC001169875900    0.0700
     43 H43        -4.0437    1.2758   67.2554 H       1  ZINC001169875900    0.0800
     44 H44        -6.9064    2.8270   59.6968 H       1  ZINC001169875900    0.1400
     45 H45        -5.5519    1.9259   57.0153 H       1  ZINC001169875900    0.0700
     46 H46        -6.0178    3.5648   57.5304 H       1  ZINC001169875900    0.0700
     47 H47        -6.6592    2.8931   56.0119 H       1  ZINC001169875900    0.0700
@<TRIPOS>BOND
     1     1     2    1
     2     1    25    1
     3     1    26    1
     4     1    27    1
     5     2     3    1
     6     2    28    1
     7     2    29    1
     8     3     4    1
     9     3    30    1
    10     3    31    1
    11     4     5    1
    12     5    23   ar
    13     5     6   ar
    14     6     7   ar
    15     7     8   ar
    16     7    32    1
    17     8     9    1
    18     8    22   ar
    19     9    10    1
    20     9    33    1
    21    10    11    1
    22    10    34    1
    23    10    35    1
    24    11    21   ar
    25    11    12   ar
    26    12    13   ar
    27    12    36    1
    28    13    14   ar
    29    13    37    1
    30    14    15   ar
    31    14    38    1
    32    15    16    1
    33    15    21   ar
    34    16    17    2
    35    16    18    1
    36    18    19    1
    37    19    20    1
    38    19    39    1
    39    19    40    1
    40    20    41    1
    41    20    42    1
    42    20    43    1
    43    22    23   ar
    44    22    44    1
    45    23    24    1
    46    24    45    1
    47    24    46    1
    48    24    47    1
@<TRIPOS>SUBSTRUCTURE
     1 ZINC001169875900        1 TEMP              0 ****  ****    0 ROOT


##########                                Name:    ZINC000509132103
##########                DOCK_Rotatable_Bonds:                   7
##########                         Heavy_Atoms:                  29
##########                    Molecular_Weight:              405.52
##########                DOCK_Rotatable_Bonds:                   7
##########                       Formal_Charge:          -0.0499998
##########                     HBond_Acceptors:                   6
##########                        HBond_Donors:                   0
##########                         Heavy_Atoms:                  29
##########                          Grid_Score:          -33.370590
##########                     Grid_vdw_energy:          -33.296490
##########                      Grid_es_energy:           -0.074102
##########           Internal_energy_repulsive:           18.966608

@<TRIPOS>MOLECULE
ZINC000509132103
 52 55 1 0 0
SMALL
USER_CHARGES


@<TRIPOS>ATOM
      1 C1         -1.4658    3.8488   55.5154 C.3     1  ZINC000509132103    0.0300
      2 O2         -2.8843    3.9871   55.6201 O.3     1  ZINC000509132103   -0.3000
      3 C3         -3.6185    3.6460   54.5312 C.ar    1  ZINC000509132103    0.2700
      4 C4         -2.9876    3.1810   53.3805 C.ar    1  ZINC000509132103   -0.1300
      5 C5         -3.7823    2.8456   52.2946 C.ar    1  ZINC000509132103   -0.0700
      6 C6         -5.1557    2.9939   52.4215 C.ar    1  ZINC000509132103    0.0500
      7 C7         -6.0615    2.6422   51.2696 C.3     1  ZINC000509132103   -0.0500
      8 S8         -7.6414    2.0222   51.9101 S.3     1  ZINC000509132103   -0.1500
      9 C9         -7.1913    0.4145   52.6196 C.3     1  ZINC000509132103   -0.1300
     10 C10        -8.4400   -0.3137   53.0457 C.2     1  ZINC000509132103    0.5400
     11 O11        -8.8601   -1.2373   52.3814 O.2     1  ZINC000509132103   -0.5100
     12 N12        -9.0899    0.0614   54.1653 N.am    1  ZINC000509132103   -0.6100
     13 C13        -8.6078    1.1741   54.9906 C.3     1  ZINC000509132103    0.1500
     14 C14        -8.6660    0.7883   56.4474 C.ar    1  ZINC000509132103   -0.1000
     15 C15        -8.0272    1.6138   57.3619 C.ar    1  ZINC000509132103   -0.1100
     16 C16        -8.0540    1.3190   58.7099 C.ar    1  ZINC000509132103   -0.1200
     17 C17        -8.7237    0.1935   59.1519 C.ar    1  ZINC000509132103   -0.1200
     18 C18        -9.3557   -0.6300   58.2433 C.ar    1  ZINC000509132103   -0.1100
     19 C19        -9.3252   -0.3389   56.8852 C.ar    1  ZINC000509132103   -0.0600
     20 C20       -10.0141   -1.2975   55.9500 C.3     1  ZINC000509132103   -0.0200
     21 H21        -9.3708   -2.1617   55.7848 H       1  ZINC000509132103    0.1000
     22 C22       -11.3078   -1.7546   56.5733 C.ar    1  ZINC000509132103   -0.0800
     23 C23       -12.2698   -0.8272   56.9275 C.ar    1  ZINC000509132103   -0.1100
     24 C24       -13.4565   -1.2465   57.4992 C.ar    1  ZINC000509132103   -0.1200
     25 C25       -13.6813   -2.5930   57.7165 C.ar    1  ZINC000509132103   -0.1200
     26 C26       -12.7196   -3.5203   57.3614 C.ar    1  ZINC000509132103   -0.1200
     27 C27       -11.5347   -3.1015   56.7857 C.ar    1  ZINC000509132103   -0.1100
     28 C28       -10.3156   -0.6253   54.6055 C.3     1  ZINC000509132103    0.1200
     29 N29        -5.6683    3.4423   53.5504 N.ar    1  ZINC000509132103   -0.1900
     30 N30        -4.9378    3.7489   54.5603 N.ar    1  ZINC000509132103   -0.3000
     31 H31        -1.0981    4.4786   54.7053 H       1  ZINC000509132103    0.0600
     32 H32        -1.0007    4.1542   56.4527 H       1  ZINC000509132103    0.1000
     33 H33        -1.2165    2.8081   55.3083 H       1  ZINC000509132103    0.0600
     34 H34        -1.9129    3.0848   53.3348 H       1  ZINC000509132103    0.1600
     35 H35        -3.3450    2.4801   51.3773 H       1  ZINC000509132103    0.1600
     36 H36        -6.2389    3.5301   50.6626 H       1  ZINC000509132103    0.1100
     37 H37        -5.5900    1.8726   50.6585 H       1  ZINC000509132103    0.1000
     38 H38        -6.6628   -0.1772   51.8723 H       1  ZINC000509132103    0.1100
     39 H39        -6.5463    0.5670   53.4850 H       1  ZINC000509132103    0.1100
     40 H40        -7.5786    1.4083   54.7183 H       1  ZINC000509132103    0.1000
     41 H41        -9.2350    2.0494   54.8218 H       1  ZINC000509132103    0.0900
     42 H42        -7.5048    2.4935   57.0161 H       1  ZINC000509132103    0.1200
     43 H43        -7.5542    1.9651   59.4163 H       1  ZINC000509132103    0.1300
     44 H44        -8.7516   -0.0408   60.2058 H       1  ZINC000509132103    0.1200
     45 H45        -9.8784   -1.5088   58.5907 H       1  ZINC000509132103    0.1200
     46 H46       -12.0942    0.2248   56.7578 H       1  ZINC000509132103    0.1200
     47 H47       -14.2079   -0.5220   57.7766 H       1  ZINC000509132103    0.1200
     48 H48       -14.6081   -2.9205   58.1638 H       1  ZINC000509132103    0.1200
     49 H49       -12.8951   -4.5724   57.5314 H       1  ZINC000509132103    0.1200
     50 H50       -10.7833   -3.8260   56.5084 H       1  ZINC000509132103    0.1200
     51 H51       -11.1248    0.0950   54.7266 H       1  ZINC000509132103    0.0800
     52 H52       -10.5993   -1.3795   53.8714 H       1  ZINC000509132103    0.1000
@<TRIPOS>BOND
     1     1     2    1
     2     1    31    1
     3     1    32    1
     4     1    33    1
     5     2     3    1
     6     3    30   ar
     7     3     4   ar
     8     4     5   ar
     9     4    34    1
    10     5     6   ar
    11     5    35    1
    12     6     7    1
    13     6    29   ar
    14     7     8    1
    15     7    36    1
    16     7    37    1
    17     8     9    1
    18     9    10    1
    19     9    38    1
    20     9    39    1
    21    10    11    2
    22    10    12   am
    23    12    28    1
    24    12    13    1
    25    13    14    1
    26    13    40    1
    27    13    41    1
    28    14    19   ar
    29    14    15   ar
    30    15    16   ar
    31    15    42    1
    32    16    17   ar
    33    16    43    1
    34    17    18   ar
    35    17    44    1
    36    18    19   ar
    37    18    45    1
    38    19    20    1
    39    20    21    1
    40    20    22    1
    41    20    28    1
    42    22    27   ar
    43    22    23   ar
    44    23    24   ar
    45    23    46    1
    46    24    25   ar
    47    24    47    1
    48    25    26   ar
    49    25    48    1
    50    26    27   ar
    51    26    49    1
    52    27    50    1
    53    28    51    1
    54    28    52    1
    55    29    30   ar
@<TRIPOS>SUBSTRUCTURE
     1 ZINC000509132103        1 TEMP              0 ****  ****    0 ROOT


##########                                Name:    ZINC001284642199
##########                DOCK_Rotatable_Bonds:                   8
##########                         Heavy_Atoms:                  25
##########                    Molecular_Weight:             346.516
##########                DOCK_Rotatable_Bonds:                   8
##########                       Formal_Charge:         -3.8743e-07
##########                     HBond_Acceptors:                   5
##########                        HBond_Donors:                   2
##########                         Heavy_Atoms:                  25
##########                          Grid_Score:          -33.367893
##########                     Grid_vdw_energy:          -33.399323
##########                      Grid_es_energy:            0.031428
##########           Internal_energy_repulsive:           18.722961

@<TRIPOS>MOLECULE
ZINC001284642199
 59 60 1 0 0
SMALL
USER_CHARGES


@<TRIPOS>ATOM
      1 C1         -8.3683   -0.2740   66.1850 C.3     1  ZINC001284642199   -0.1100
      2 C2         -8.7348    0.1427   64.7839 C.ar    1  ZINC001284642199   -0.1900
      3 C3         -9.7756    1.0293   64.5564 C.ar    1  ZINC001284642199    0.1500
      4 N4        -10.0684    1.3727   63.3124 N.ar    1  ZINC001284642199   -0.4900
      5 C5         -9.3844    0.8827   62.2979 C.ar    1  ZINC001284642199    0.3100
      6 C6         -9.7509    1.2995   60.8968 C.3     1  ZINC001284642199    0.1300
      7 N7         -8.7496    0.7825   59.9544 N.3     1  ZINC001284642199   -0.6800
      8 C8         -9.1294   -0.5477   59.4602 C.3     1  ZINC001284642199    0.0500
      9 C9        -10.0302   -0.3976   58.2325 C.3     1  ZINC001284642199    0.1600
     10 H10       -10.6519    0.4908   58.3446 H       1  ZINC001284642199    0.1000
     11 N11        -9.2013   -0.2654   57.0319 N.am    1  ZINC001284642199   -0.7200
     12 C12        -9.0526    0.9387   56.4449 C.2     1  ZINC001284642199    0.5200
     13 O13        -9.6037    1.9131   56.9115 O.2     1  ZINC001284642199   -0.5300
     14 C14        -8.2014    1.0744   55.2087 C.3     1  ZINC001284642199   -0.1100
     15 H15        -7.1847    0.7497   55.4303 H       1  ZINC001284642199    0.0900
     16 C16        -8.7823    0.2051   54.0916 C.3     1  ZINC001284642199   -0.1000
     17 C17        -7.9181    0.3428   52.8366 C.3     1  ZINC001284642199   -0.1100
     18 C18        -7.9001    1.8053   52.3877 C.3     1  ZINC001284642199   -0.0900
     19 H19        -8.9168    2.1299   52.1661 H       1  ZINC001284642199    0.0700
     20 C20        -7.0358    1.9430   51.1327 C.3     1  ZINC001284642199   -0.1500
     21 C21        -7.3193    2.6745   53.5048 C.3     1  ZINC001284642199   -0.1100
     22 C22        -8.1834    2.5369   54.7598 C.3     1  ZINC001284642199   -0.1100
     23 C23       -10.9240   -1.6324   58.1018 C.3     1  ZINC001284642199   -0.0800
     24 C24       -12.0080   -1.5940   59.1808 C.3     1  ZINC001284642199   -0.1400
     25 C25       -11.5803   -1.6429   56.7197 C.3     1  ZINC001284642199   -0.1400
     26 C26       -10.0775   -2.8952   58.2739 C.3     1  ZINC001284642199   -0.1300
     27 N27        -8.3920    0.0340   62.4758 N.ar    1  ZINC001284642199   -0.5100
     28 C28        -8.0389   -0.3510   63.6917 C.ar    1  ZINC001284642199    0.1500
     29 H29        -8.9373   -1.1621   66.4604 H       1  ZINC001284642199    0.0800
     30 H30        -7.3024   -0.4968   66.2307 H       1  ZINC001284642199    0.0700
     31 H31        -8.6005    0.5352   66.8772 H       1  ZINC001284642199    0.0700
     32 H32       -10.3403    1.4340   65.3833 H       1  ZINC001284642199    0.1700
     33 H33        -9.7786    2.3875   60.8369 H       1  ZINC001284642199    0.1000
     34 H34       -10.7313    0.8965   60.6427 H       1  ZINC001284642199    0.0600
     35 H35        -7.8327    0.7636   60.3753 H       1  ZINC001284642199    0.3400
     36 H36        -9.6664   -1.0859   60.2413 H       1  ZINC001284642199    0.0900
     37 H37        -8.2325   -1.1035   59.1868 H       1  ZINC001284642199    0.0400
     38 H38        -8.7595   -1.0444   56.6593 H       1  ZINC001284642199    0.3900
     39 H39        -9.7990    0.5296   53.8701 H       1  ZINC001284642199    0.0700
     40 H40        -8.7951   -0.8369   54.4114 H       1  ZINC001284642199    0.0700
     41 H41        -8.3319   -0.2765   52.0408 H       1  ZINC001284642199    0.0700
     42 H42        -6.9014    0.0182   53.0581 H       1  ZINC001284642199    0.0600
     43 H43        -7.4497    1.3238   50.3368 H       1  ZINC001284642199    0.0500
     44 H44        -7.0230    2.9850   50.8129 H       1  ZINC001284642199    0.0500
     45 H45        -6.0192    1.6185   51.3542 H       1  ZINC001284642199    0.0500
     46 H46        -6.3026    2.3500   53.7263 H       1  ZINC001284642199    0.0600
     47 H47        -7.3064    3.7165   53.1851 H       1  ZINC001284642199    0.0700
     48 H48        -9.2001    2.8615   54.5382 H       1  ZINC001284642199    0.0700
     49 H49        -7.7696    3.1561   55.5556 H       1  ZINC001284642199    0.0600
     50 H50       -12.6110   -0.6943   59.0582 H       1  ZINC001284642199    0.0600
     51 H51       -12.6448   -2.4737   59.0878 H       1  ZINC001284642199    0.0600
     52 H52       -11.5404   -1.5866   60.1655 H       1  ZINC001284642199    0.0500
     53 H53       -10.8082   -1.6703   55.9509 H       1  ZINC001284642199    0.0600
     54 H54       -12.2172   -2.5226   56.6265 H       1  ZINC001284642199    0.0600
     55 H55       -12.1834   -0.7433   56.5971 H       1  ZINC001284642199    0.0600
     56 H56        -9.6100   -2.8878   59.2585 H       1  ZINC001284642199    0.0500
     57 H57       -10.7144   -3.7750   58.1808 H       1  ZINC001284642199    0.0500
     58 H58        -9.3054   -2.9227   57.5051 H       1  ZINC001284642199    0.0600
     59 H59        -7.2221   -1.0439   63.8307 H       1  ZINC001284642199    0.1700
@<TRIPOS>BOND
     1     1     2    1
     2     1    29    1
     3     1    30    1
     4     1    31    1
     5     2    28   ar
     6     2     3   ar
     7     3     4   ar
     8     3    32    1
     9     4     5   ar
    10     5     6    1
    11     5    27   ar
    12     6     7    1
    13     6    33    1
    14     6    34    1
    15     7     8    1
    16     7    35    1
    17     8     9    1
    18     8    36    1
    19     8    37    1
    20     9    10    1
    21     9    11    1
    22     9    23    1
    23    11    12   am
    24    11    38    1
    25    12    13    2
    26    12    14    1
    27    14    15    1
    28    14    22    1
    29    14    16    1
    30    16    17    1
    31    16    39    1
    32    16    40    1
    33    17    18    1
    34    17    41    1
    35    17    42    1
    36    18    19    1
    37    18    20    1
    38    18    21    1
    39    20    43    1
    40    20    44    1
    41    20    45    1
    42    21    22    1
    43    21    46    1
    44    21    47    1
    45    22    48    1
    46    22    49    1
    47    23    24    1
    48    23    25    1
    49    23    26    1
    50    24    50    1
    51    24    51    1
    52    24    52    1
    53    25    53    1
    54    25    54    1
    55    25    55    1
    56    26    56    1
    57    26    57    1
    58    26    58    1
    59    27    28   ar
    60    28    59    1
@<TRIPOS>SUBSTRUCTURE
     1 ZINC001284642199        1 TEMP              0 ****  ****    0 ROOT


##########                                Name:    ZINC000762020937
##########                DOCK_Rotatable_Bonds:                  10
##########                         Heavy_Atoms:                  28
##########                    Molecular_Weight:             391.467
##########                DOCK_Rotatable_Bonds:                  10
##########                       Formal_Charge:         -1.8999e-07
##########                     HBond_Acceptors:                   8
##########                        HBond_Donors:                   1
##########                         Heavy_Atoms:                  28
##########                          Grid_Score:          -33.351372
##########                     Grid_vdw_energy:          -32.894516
##########                      Grid_es_energy:           -0.456854
##########           Internal_energy_repulsive:           50.486870

@<TRIPOS>MOLECULE
ZINC000762020937
 57 58 1 0 0
SMALL
USER_CHARGES


@<TRIPOS>ATOM
      1 C1         -5.6746    2.5926   52.3007 C.3     1  ZINC000762020937    0.0200
      2 O2         -6.0223    2.0266   53.5660 O.3     1  ZINC000762020937   -0.3000
      3 C3         -7.2599    1.4737   53.6759 C.ar    1  ZINC000762020937    0.1100
      4 C4         -7.6134    0.3988   52.8769 C.ar    1  ZINC000762020937   -0.1700
      5 C5         -8.8720   -0.1626   52.9902 C.ar    1  ZINC000762020937   -0.1000
      6 C6         -9.7798    0.3466   53.8994 C.ar    1  ZINC000762020937   -0.1000
      7 C7        -11.1504   -0.2687   54.0185 C.3     1  ZINC000762020937    0.0200
      8 C8        -11.1412   -1.3083   55.1094 C.2     1  ZINC000762020937    0.1900
      9 N9        -12.0264   -1.4427   56.0675 N.2     1  ZINC000762020937   -0.4700
     10 C10       -11.6127   -2.4937   56.7977 C.2     1  ZINC000762020937    0.1600
     11 C11       -12.2944   -3.0549   58.0189 C.3     1  ZINC000762020937    0.2600
     12 H12       -12.4675   -4.1221   57.8803 H       1  ZINC000762020937    0.1200
     13 N13       -11.4427   -2.8468   59.1926 N.am    1  ZINC000762020937   -0.7100
     14 C14       -10.9664   -1.6169   59.4701 C.2     1  ZINC000762020937    0.6600
     15 O15       -11.2446   -0.6804   58.7476 O.2     1  ZINC000762020937   -0.5600
     16 O16       -10.1824   -1.4260   60.5478 O.3     1  ZINC000762020937   -0.3600
     17 C17        -9.6321   -0.0955   60.7354 C.3     1  ZINC000762020937    0.1400
     18 C18       -10.7726    0.9041   60.9385 C.3     1  ZINC000762020937   -0.1800
     19 C19        -8.7225   -0.0884   61.9656 C.3     1  ZINC000762020937   -0.1400
     20 C20        -8.8215    0.3001   59.4995 C.3     1  ZINC000762020937   -0.1800
     21 C21       -13.6330   -2.3441   58.2278 C.3     1  ZINC000762020937   -0.1000
     22 C22       -14.6364   -2.8278   57.1790 C.3     1  ZINC000762020937   -0.1400
     23 C23       -14.1655   -2.6600   59.6269 C.3     1  ZINC000762020937   -0.1400
     24 N24       -10.5175   -2.9367   56.2565 N.2     1  ZINC000762020937   -0.3700
     25 O25       -10.2325   -2.2730   55.2820 O.3     1  ZINC000762020937    0.0900
     26 C26        -9.4332    1.4193   54.7004 C.ar    1  ZINC000762020937   -0.1500
     27 C27        -8.1722    1.9830   54.5956 C.ar    1  ZINC000762020937    0.1000
     28 O28        -7.8297    3.0379   55.3825 O.3     1  ZINC000762020937   -0.3100
     29 C29        -7.0235    2.7575   56.5286 C.3     1  ZINC000762020937    0.0200
     30 H30        -5.7198    1.8205   51.5326 H       1  ZINC000762020937    0.0600
     31 H31        -6.3750    3.3909   52.0550 H       1  ZINC000762020937    0.0600
     32 H32        -4.6641    2.9981   52.3494 H       1  ZINC000762020937    0.1000
     33 H33        -6.9060   -0.0007   52.1651 H       1  ZINC000762020937    0.1400
     34 H34        -9.1464   -1.0007   52.3666 H       1  ZINC000762020937    0.1300
     35 H35       -11.8769    0.5067   54.2616 H       1  ZINC000762020937    0.1200
     36 H36       -11.4217   -0.7372   53.0724 H       1  ZINC000762020937    0.1200
     37 H37       -11.2216   -3.5942   59.7700 H       1  ZINC000762020937    0.4100
     38 H38       -11.3502    0.6223   61.8189 H       1  ZINC000762020937    0.0600
     39 H39       -10.3596    1.9029   61.0793 H       1  ZINC000762020937    0.0700
     40 H40       -11.4206    0.8990   60.0621 H       1  ZINC000762020937    0.0900
     41 H41        -7.9101   -0.8004   61.8209 H       1  ZINC000762020937    0.0700
     42 H42        -8.3096    0.9105   62.1065 H       1  ZINC000762020937    0.0800
     43 H43        -9.3001   -0.3701   62.8460 H       1  ZINC000762020937    0.0700
     44 H44        -9.4694    0.2950   58.6230 H       1  ZINC000762020937    0.0900
     45 H45        -8.4085    1.2989   59.6403 H       1  ZINC000762020937    0.0700
     46 H46        -8.0090   -0.4119   59.3548 H       1  ZINC000762020937    0.0600
     47 H47       -13.4925   -1.2678   58.1270 H       1  ZINC000762020937    0.0800
     48 H48       -14.7770   -3.9040   57.2797 H       1  ZINC000762020937    0.0600
     49 H49       -15.5901   -2.3214   57.3278 H       1  ZINC000762020937    0.0600
     50 H50       -14.2571   -2.6027   56.1822 H       1  ZINC000762020937    0.0500
     51 H51       -13.4506   -2.3154   60.3741 H       1  ZINC000762020937    0.0500
     52 H52       -15.1191   -2.1536   59.7757 H       1  ZINC000762020937    0.0600
     53 H53       -14.3059   -3.7362   59.7276 H       1  ZINC000762020937    0.0700
     54 H54       -10.1445    1.8153   55.4100 H       1  ZINC000762020937    0.1400
     55 H55        -6.0812    2.3118   56.2097 H       1  ZINC000762020937    0.0600
     56 H56        -6.8234    3.6836   57.0675 H       1  ZINC000762020937    0.1000
     57 H57        -7.5508    2.0632   57.1828 H       1  ZINC000762020937    0.0600
@<TRIPOS>BOND
     1     1     2    1
     2     1    30    1
     3     1    31    1
     4     1    32    1
     5     2     3    1
     6     3    27   ar
     7     3     4   ar
     8     4     5   ar
     9     4    33    1
    10     5     6   ar
    11     5    34    1
    12     6     7    1
    13     6    26   ar
    14     7     8    1
    15     7    35    1
    16     7    36    1
    17     8    25    1
    18     8     9    2
    19     9    10    1
    20    10    11    1
    21    10    24    2
    22    11    12    1
    23    11    13    1
    24    11    21    1
    25    13    14   am
    26    13    37    1
    27    14    15    2
    28    14    16    1
    29    16    17    1
    30    17    18    1
    31    17    19    1
    32    17    20    1
    33    18    38    1
    34    18    39    1
    35    18    40    1
    36    19    41    1
    37    19    42    1
    38    19    43    1
    39    20    44    1
    40    20    45    1
    41    20    46    1
    42    21    22    1
    43    21    23    1
    44    21    47    1
    45    22    48    1
    46    22    49    1
    47    22    50    1
    48    23    51    1
    49    23    52    1
    50    23    53    1
    51    24    25    1
    52    26    27   ar
    53    26    54    1
    54    27    28    1
    55    28    29    1
    56    29    55    1
    57    29    56    1
    58    29    57    1
@<TRIPOS>SUBSTRUCTURE
     1 ZINC000762020937        1 TEMP              0 ****  ****    0 ROOT


##########                                Name:    ZINC000621594459
##########                DOCK_Rotatable_Bonds:                  10
##########                         Heavy_Atoms:                  25
##########                    Molecular_Weight:             389.497
##########                DOCK_Rotatable_Bonds:                  10
##########                       Formal_Charge:         -7.7486e-07
##########                     HBond_Acceptors:                  10
##########                        HBond_Donors:                   3
##########                         Heavy_Atoms:                  25
##########                          Grid_Score:          -33.344784
##########                     Grid_vdw_energy:          -31.124607
##########                      Grid_es_energy:           -2.220177
##########           Internal_energy_repulsive:            8.496300

@<TRIPOS>MOLECULE
ZINC000621594459
 48 49 1 0 0
SMALL
USER_CHARGES


@<TRIPOS>ATOM
      1 C1        -11.8550   -1.4057   56.2101 C.3     1  ZINC000621594459   -0.1600
      2 C2        -11.7879   -2.8344   56.7536 C.3     1  ZINC000621594459    0.1300
      3 C3        -10.3652   -3.1320   57.2313 C.3     1  ZINC000621594459   -0.1800
      4 N4        -12.7191   -2.9741   57.8759 N.am    1  ZINC000621594459   -1.1100
      5 S5        -14.2330   -3.5959   57.6232 S.o2    1  ZINC000621594459    2.6200
      6 O6        -14.8602   -2.6533   56.7645 O.2     1  ZINC000621594459   -0.9500
      7 O7        -13.9968   -4.9310   57.1974 O.2     1  ZINC000621594459   -0.9400
      8 C8        -15.0089   -3.5786   59.2627 C.3     1  ZINC000621594459   -0.6600
      9 C9        -15.4835   -2.1606   59.5873 C.3     1  ZINC000621594459    0.1300
     10 N10       -14.3701   -1.3884   60.1439 N.am    1  ZINC000621594459   -0.7200
     11 C11       -14.6163   -0.3108   60.9149 C.2     1  ZINC000621594459    0.5600
     12 O12       -15.7623    0.0195   61.1496 O.2     1  ZINC000621594459   -0.5200
     13 C13       -13.4925    0.4697   61.4753 C.ar    1  ZINC000621594459   -0.1500
     14 C14       -13.7286    1.7095   62.0708 C.ar    1  ZINC000621594459   -0.0300
     15 C15       -12.6755    2.4327   62.5923 C.ar    1  ZINC000621594459   -0.1400
     16 C16       -11.3879    1.9312   62.5254 C.ar    1  ZINC000621594459    0.0100
     17 C17       -11.1470    0.7028   61.9358 C.ar    1  ZINC000621594459   -0.6800
     18 S18        -9.5031    0.0737   61.8553 S.o2    1  ZINC000621594459    2.7000
     19 O19        -9.0146    0.0553   63.1896 O.2     1  ZINC000621594459   -0.9400
     20 O20        -9.5559   -1.0826   61.0309 O.2     1  ZINC000621594459   -0.9500
     21 N21        -8.5909    1.1889   61.0387 N.am    1  ZINC000621594459   -1.0900
     22 C22        -8.9367    1.5515   59.6621 C.3     1  ZINC000621594459    0.0800
     23 C23        -8.8016    3.0225   59.2638 C.3     1  ZINC000621594459   -0.1800
     24 C24        -7.7979    1.9931   58.7406 C.3     1  ZINC000621594459   -0.1900
     25 C25       -12.1916   -0.0330   61.4162 C.ar    1  ZINC000621594459    0.0400
     26 H26       -11.1621   -1.3017   55.3751 H       1  ZINC000621594459    0.0700
     27 H27       -12.8685   -1.1937   55.8698 H       1  ZINC000621594459    0.0700
     28 H28       -11.5821   -0.7039   56.9983 H       1  ZINC000621594459    0.0600
     29 H29       -12.0608   -3.5361   55.9655 H       1  ZINC000621594459    0.0900
     30 H30       -10.0923   -2.4303   58.0195 H       1  ZINC000621594459    0.0700
     31 H31       -10.3174   -4.1498   57.6187 H       1  ZINC000621594459    0.0600
     32 H32        -9.6723   -3.0280   56.3964 H       1  ZINC000621594459    0.0700
     33 H33       -12.4490   -2.7024   58.7671 H       1  ZINC000621594459    0.4200
     34 H34       -15.8617   -4.2573   59.2682 H       1  ZINC000621594459    0.1400
     35 H35       -14.2843   -3.8993   60.0110 H       1  ZINC000621594459    0.1400
     36 H36       -15.8400   -1.6794   58.6765 H       1  ZINC000621594459    0.0900
     37 H37       -16.2938   -2.2064   60.3150 H       1  ZINC000621594459    0.0900
     38 H38       -13.4555   -1.6527   59.9577 H       1  ZINC000621594459    0.4000
     39 H39       -14.7333    2.1024   62.1231 H       1  ZINC000621594459    0.1300
     40 H40       -12.8568    3.3922   63.0535 H       1  ZINC000621594459    0.1400
     41 H41       -10.5671    2.5014   62.9348 H       1  ZINC000621594459    0.1500
     42 H42        -7.8277    1.6021   61.4720 H       1  ZINC000621594459    0.4200
     43 H43        -9.7525    0.9820   59.2167 H       1  ZINC000621594459    0.1400
     44 H44        -9.5287    3.4213   58.5564 H       1  ZINC000621594459    0.1100
     45 H45        -8.4554    3.7206   60.0261 H       1  ZINC000621594459    0.1000
     46 H46        -6.7915    2.0139   59.1587 H       1  ZINC000621594459    0.1000
     47 H47        -7.8647    1.7145   57.6889 H       1  ZINC000621594459    0.1000
     48 H48       -12.0023   -0.9918   60.9567 H       1  ZINC000621594459    0.1600
@<TRIPOS>BOND
     1     1     2    1
     2     1    26    1
     3     1    27    1
     4     1    28    1
     5     2     3    1
     6     2     4    1
     7     2    29    1
     8     3    30    1
     9     3    31    1
    10     3    32    1
    11     4     5   am
    12     4    33    1
    13     5     6    2
    14     5     7    2
    15     5     8    1
    16     8     9    1
    17     8    34    1
    18     8    35    1
    19     9    10    1
    20     9    36    1
    21     9    37    1
    22    10    11   am
    23    10    38    1
    24    11    12    2
    25    11    13    1
    26    13    25   ar
    27    13    14   ar
    28    14    15   ar
    29    14    39    1
    30    15    16   ar
    31    15    40    1
    32    16    17   ar
    33    16    41    1
    34    17    18    1
    35    17    25   ar
    36    18    19    2
    37    18    20    2
    38    18    21   am
    39    21    22    1
    40    21    42    1
    41    22    24    1
    42    22    23    1
    43    22    43    1
    44    23    24    1
    45    23    44    1
    46    23    45    1
    47    24    46    1
    48    24    47    1
    49    25    48    1
@<TRIPOS>SUBSTRUCTURE
     1 ZINC000621594459        1 TEMP              0 ****  ****    0 ROOT


##########                                Name:    ZINC001570985666
##########                DOCK_Rotatable_Bonds:                   7
##########                         Heavy_Atoms:                  26
##########                    Molecular_Weight:             357.415
##########                DOCK_Rotatable_Bonds:                   7
##########                       Formal_Charge:          -0.0100001
##########                     HBond_Acceptors:                   9
##########                        HBond_Donors:                   3
##########                         Heavy_Atoms:                  26
##########                          Grid_Score:          -33.236183
##########                     Grid_vdw_energy:          -29.765673
##########                      Grid_es_energy:           -3.470511
##########           Internal_energy_repulsive:            9.359898

@<TRIPOS>MOLECULE
ZINC001570985666
 49 52 1 0 0
SMALL
USER_CHARGES


@<TRIPOS>ATOM
      1 C1        -10.8964    0.6481   56.0266 C.3     1  ZINC001570985666   -0.1600
      2 C2         -9.4798    1.1031   56.3837 C.3     1  ZINC001570985666    0.1300
      3 H3         -8.8484    0.2349   56.5725 H       1  ZINC001570985666    0.0800
      4 C4         -9.5183    2.0062   57.6345 C.3     1  ZINC001570985666    0.1400
      5 H5        -10.5033    2.4575   57.7542 H       1  ZINC001570985666    0.1100
      6 N6         -9.1485    1.2483   58.8325 N.am    1  ZINC001570985666   -0.7200
      7 C7         -9.4927    1.7063   60.0524 C.2     1  ZINC001570985666    0.6000
      8 O8        -10.1090    2.7493   60.1589 O.2     1  ZINC001570985666   -0.5300
      9 C9         -9.1224    0.9433   61.2570 C.2     1  ZINC001570985666   -0.2300
     10 C10        -8.4518   -0.2602   61.2917 C.2     1  ZINC001570985666    0.0700
     11 N11        -8.3066   -0.6256   62.5810 N.pl3   1  ZINC001570985666   -0.5200
     12 C12        -8.8758    0.3277   63.3889 C.2     1  ZINC001570985666    0.0600
     13 C13        -8.9233    0.2920   64.8677 C.2     1  ZINC001570985666    0.2500
     14 N14        -9.4296    1.2154   65.6630 N.2     1  ZINC001570985666   -0.3100
     15 N15        -9.2789    0.8143   66.8784 N.pl3   1  ZINC001570985666   -0.2200
     16 N16        -8.6941   -0.3324   66.8797 N.2     1  ZINC001570985666   -0.0400
     17 N17        -8.4652   -0.6881   65.6613 N.2     1  ZINC001570985666   -0.2600
     18 C18        -9.3828    1.3107   62.6027 C.2     1  ZINC001570985666   -0.0600
     19 C19        -8.4537    3.0885   57.3145 C.3     1  ZINC001570985666   -0.1500
     20 C20        -8.6343    3.2600   55.7855 C.3     1  ZINC001570985666    0.1000
     21 N21        -8.9183    1.8999   55.2832 N.am    1  ZINC001570985666   -0.6200
     22 C22        -8.7000    1.4654   54.0261 C.2     1  ZINC001570985666    0.5300
     23 O23        -8.9731    0.3232   53.7234 O.2     1  ZINC001570985666   -0.5300
     24 C24        -8.1167    2.3989   52.9969 C.3     1  ZINC001570985666   -0.1300
     25 C25        -6.5924    2.2664   52.9939 C.3     1  ZINC001570985666   -0.1000
     26 C26        -6.0803    1.0631   52.1847 C.3     1  ZINC001570985666   -0.1300
     27 C27        -4.9513    1.9799   51.6848 C.3     1  ZINC001570985666   -0.1400
     28 C28        -5.8983    3.1614   51.9536 C.3     1  ZINC001570985666   -0.1400
     29 H29       -10.8621    0.0157   55.1395 H       1  ZINC001570985666    0.0700
     30 H30       -11.3175    0.0842   56.8589 H       1  ZINC001570985666    0.0700
     31 H31       -11.5186    1.5205   55.8270 H       1  ZINC001570985666    0.0600
     32 H32        -8.6559    0.4170   58.7477 H       1  ZINC001570985666    0.4000
     33 H33        -8.1031   -0.8155   60.4336 H       1  ZINC001570985666    0.1800
     34 H34        -7.8692   -1.4345   62.8895 H       1  ZINC001570985666    0.4300
     35 H35        -9.5617    1.3005   67.6687 H       1  ZINC001570985666    0.4800
     36 H36        -9.8938    2.2013   62.9377 H       1  ZINC001570985666    0.1600
     37 H37        -8.6714    4.0181   57.8404 H       1  ZINC001570985666    0.0900
     38 H38        -7.4511    2.7327   57.5520 H       1  ZINC001570985666    0.0800
     39 H39        -9.4711    3.9259   55.5747 H       1  ZINC001570985666    0.0800
     40 H40        -7.7191    3.6455   55.3364 H       1  ZINC001570985666    0.0800
     41 H41        -8.5056    2.1422   52.0116 H       1  ZINC001570985666    0.0900
     42 H42        -8.3916    3.4252   53.2401 H       1  ZINC001570985666    0.0900
     43 H43        -6.1592    2.3398   53.9914 H       1  ZINC001570985666    0.1000
     44 H44        -5.7302    0.2375   52.8043 H       1  ZINC001570985666    0.0700
     45 H45        -6.7636    0.7433   51.3981 H       1  ZINC001570985666    0.0800
     46 H46        -4.0685    1.9738   52.3242 H       1  ZINC001570985666    0.0800
     47 H47        -4.7124    1.8430   50.6302 H       1  ZINC001570985666    0.0700
     48 H48        -6.5319    3.4151   51.1037 H       1  ZINC001570985666    0.0800
     49 H49        -5.4014    4.0295   52.3865 H       1  ZINC001570985666    0.0700
@<TRIPOS>BOND
     1     1     2    1
     2     1    29    1
     3     1    30    1
     4     1    31    1
     5     2     3    1
     6     2    21    1
     7     2     4    1
     8     4     5    1
     9     4     6    1
    10     4    19    1
    11     6     7   am
    12     6    32    1
    13     7     8    2
    14     7     9    1
    15     9    18    1
    16     9    10    2
    17    10    11    1
    18    10    33    1
    19    11    12    1
    20    11    34    1
    21    12    13    1
    22    12    18    2
    23    13    17    1
    24    13    14    2
    25    14    15    1
    26    15    16    1
    27    15    35    1
    28    16    17    2
    29    18    36    1
    30    19    20    1
    31    19    37    1
    32    19    38    1
    33    20    21    1
    34    20    39    1
    35    20    40    1
    36    21    22   am
    37    22    23    2
    38    22    24    1
    39    24    25    1
    40    24    41    1
    41    24    42    1
    42    25    28    1
    43    25    26    1
    44    25    43    1
    45    26    27    1
    46    26    44    1
    47    26    45    1
    48    27    28    1
    49    27    46    1
    50    27    47    1
    51    28    48    1
    52    28    49    1
@<TRIPOS>SUBSTRUCTURE
     1 ZINC001570985666        1 TEMP              0 ****  ****    0 ROOT


##########                                Name:    ZINC001039825450
##########                DOCK_Rotatable_Bonds:                   8
##########                         Heavy_Atoms:                  24
##########                    Molecular_Weight:             337.339
##########                DOCK_Rotatable_Bonds:                   8
##########                       Formal_Charge:           0.0100001
##########                     HBond_Acceptors:                  11
##########                        HBond_Donors:                   4
##########                         Heavy_Atoms:                  24
##########                          Grid_Score:          -33.230247
##########                     Grid_vdw_energy:          -31.727448
##########                      Grid_es_energy:           -1.502800
##########           Internal_energy_repulsive:            7.817659

@<TRIPOS>MOLECULE
ZINC001039825450
 43 45 1 0 0
SMALL
USER_CHARGES


@<TRIPOS>ATOM
      1 O1        -10.3769   -3.8105   58.2597 O.2     1  ZINC001039825450   -0.5100
      2 C2        -11.0964   -2.8523   58.4475 C.2     1  ZINC001039825450    0.5000
      3 C3        -11.6301   -2.5700   59.8283 C.3     1  ZINC001039825450    0.1300
      4 N4        -13.0777   -2.3564   59.7581 N.pl3   1  ZINC001039825450   -0.1500
      5 N5        -13.8785   -3.0211   59.0026 N.2     1  ZINC001039825450   -0.2800
      6 C6        -15.1003   -2.5746   59.1872 C.2     1  ZINC001039825450   -0.0200
      7 C7        -14.9962   -1.5569   60.1381 C.2     1  ZINC001039825450   -0.0200
      8 N8        -13.7216   -1.4825   60.4476 N.2     1  ZINC001039825450   -0.2800
      9 N9        -11.4141   -2.0368   57.4226 N.am    1  ZINC001039825450   -0.7300
     10 C10       -10.8953   -2.3112   56.0803 C.3     1  ZINC001039825450    0.1000
     11 C11       -10.6660   -0.9908   55.3423 C.3     1  ZINC001039825450    0.1100
     12 O12       -11.9124   -0.3952   54.9764 O.3     1  ZINC001039825450   -0.5400
     13 C13        -9.8213   -0.0181   56.2071 C.3     1  ZINC001039825450   -0.1600
     14 C14        -9.1544    0.8637   55.1218 C.3     1  ZINC001039825450    0.1000
     15 N15        -8.8616   -0.0612   54.0116 N.am    1  ZINC001039825450   -0.6100
     16 C16        -7.9108    0.1146   53.0729 C.2     1  ZINC001039825450    0.5200
     17 O17        -7.7585   -0.7148   52.2012 O.2     1  ZINC001039825450   -0.5100
     18 C18        -7.0366    1.3418   53.1064 C.3     1  ZINC001039825450    0.1100
     19 H19        -6.9609    1.7288   54.1225 H       1  ZINC001039825450    0.1200
     20 C20        -7.5856    2.4230   52.1553 C.3     1  ZINC001039825450    0.1100
     21 N21        -6.5029    2.6161   51.1790 N.am    1  ZINC001039825450   -0.7400
     22 C22        -5.4850    1.8006   51.4837 C.2     1  ZINC001039825450    0.7100
     23 O23        -4.4560    1.7546   50.8376 O.2     1  ZINC001039825450   -0.5800
     24 N24        -5.7019    1.0396   52.5684 N.am    1  ZINC001039825450   -0.7200
     25 C25        -9.7784   -1.2073   54.0986 C.3     1  ZINC001039825450    0.1200
     26 H26       -11.4192   -3.4182   60.4798 H       1  ZINC001039825450    0.1400
     27 H27       -11.1500   -1.6768   60.2279 H       1  ZINC001039825450    0.1400
     28 H28       -16.0005   -2.9229   58.7027 H       1  ZINC001039825450    0.2000
     29 H29       -15.7995   -0.9570   60.5398 H       1  ZINC001039825450    0.2000
     30 H30       -11.9863   -1.2682   57.5737 H       1  ZINC001039825450    0.4000
     31 H31        -9.9522   -2.8520   56.1588 H       1  ZINC001039825450    0.0900
     32 H32       -11.6157   -2.9153   55.5287 H       1  ZINC001039825450    0.0900
     33 H33       -12.5856   -0.4346   55.6696 H       1  ZINC001039825450    0.3800
     34 H34       -10.4587    0.5795   56.8586 H       1  ZINC001039825450    0.0900
     35 H35        -9.0724   -0.5593   56.7852 H       1  ZINC001039825450    0.0900
     36 H36        -9.8399    1.6450   54.7939 H       1  ZINC001039825450    0.0800
     37 H37        -8.2324    1.3022   55.5033 H       1  ZINC001039825450    0.0800
     38 H38        -8.4904    2.0723   51.6589 H       1  ZINC001039825450    0.0900
     39 H39        -7.7800    3.3476   52.6989 H       1  ZINC001039825450    0.1000
     40 H40        -6.5229    3.2356   50.4330 H       1  ZINC001039825450    0.4400
     41 H41        -5.0783    0.3934   52.9354 H       1  ZINC001039825450    0.4400
     42 H42        -9.2087   -2.1303   54.2059 H       1  ZINC001039825450    0.0900
     43 H43       -10.3991   -1.2542   53.2038 H       1  ZINC001039825450    0.0900
@<TRIPOS>BOND
     1     1     2    2
     2     2     3    1
     3     2     9   am
     4     3     4    1
     5     3    26    1
     6     3    27    1
     7     4     8    1
     8     4     5    1
     9     5     6    2
    10     6     7    1
    11     6    28    1
    12     7     8    2
    13     7    29    1
    14     9    10    1
    15     9    30    1
    16    10    11    1
    17    10    31    1
    18    10    32    1
    19    11    25    1
    20    11    12    1
    21    11    13    1
    22    12    33    1
    23    13    14    1
    24    13    34    1
    25    13    35    1
    26    14    15    1
    27    14    36    1
    28    14    37    1
    29    15    16   am
    30    15    25    1
    31    16    17    2
    32    16    18    1
    33    18    19    1
    34    18    24    1
    35    18    20    1
    36    20    21    1
    37    20    38    1
    38    20    39    1
    39    21    22   am
    40    21    40    1
    41    22    23    2
    42    22    24   am
    43    24    41    1
    44    25    42    1
    45    25    43    1
@<TRIPOS>SUBSTRUCTURE
     1 ZINC001039825450        1 TEMP              0 ****  ****    0 ROOT


##########                                Name:    ZINC000532153088
##########                DOCK_Rotatable_Bonds:                  11
##########                         Heavy_Atoms:                  29
##########                    Molecular_Weight:             402.484
##########                DOCK_Rotatable_Bonds:                  11
##########                       Formal_Charge:          -0.0200009
##########                     HBond_Acceptors:                   6
##########                        HBond_Donors:                   1
##########                         Heavy_Atoms:                  29
##########                          Grid_Score:          -33.223232
##########                     Grid_vdw_energy:          -32.178371
##########                      Grid_es_energy:           -1.044862
##########           Internal_energy_repulsive:           23.927135

@<TRIPOS>MOLECULE
ZINC000532153088
 57 59 1 0 0
SMALL
USER_CHARGES


@<TRIPOS>ATOM
      1 C1         -8.3377    4.8104   51.5496 C.3     1  ZINC000532153088   -0.1800
      2 C2         -7.6693    3.5301   52.0547 C.3     1  ZINC000532153088    0.0800
      3 C3         -6.2224    3.4807   51.5598 C.3     1  ZINC000532153088   -0.1500
      4 O4         -7.6848    3.5164   53.4835 O.3     1  ZINC000532153088   -0.3800
      5 C5         -7.0823    2.3560   54.0602 C.3     1  ZINC000532153088    0.1000
      6 C6         -7.8172    1.1250   53.5955 C.ar    1  ZINC000532153088   -0.0700
      7 C7         -7.4044    0.4632   52.4545 C.ar    1  ZINC000532153088   -0.1000
      8 C8         -8.0787   -0.6660   52.0283 C.ar    1  ZINC000532153088   -0.1100
      9 C9         -9.1651   -1.1334   52.7435 C.ar    1  ZINC000532153088   -0.1200
     10 C10        -9.5774   -0.4720   53.8855 C.ar    1  ZINC000532153088   -0.1000
     11 C11        -8.9007    0.6544   54.3139 C.ar    1  ZINC000532153088   -0.1100
     12 C12        -9.3500    1.3755   55.5586 C.3     1  ZINC000532153088    0.1600
     13 N13        -8.6111    0.8613   56.7145 N.am    1  ZINC000532153088   -0.7300
     14 C14        -9.2118    0.7847   57.9185 C.2     1  ZINC000532153088    0.5100
     15 O15       -10.3635    1.1427   58.0455 O.2     1  ZINC000532153088   -0.5000
     16 C16        -8.4522    0.2541   59.1071 C.3     1  ZINC000532153088    0.0300
     17 N17        -9.3882   -0.0107   60.2079 N.3     1  ZINC000532153088   -0.4800
     18 C18        -9.4890   -1.4510   60.4783 C.3     1  ZINC000532153088    0.1000
     19 C19       -10.3423   -2.1022   59.4206 C.ar    1  ZINC000532153088   -0.1300
     20 C20        -9.7686   -2.9613   58.5028 C.ar    1  ZINC000532153088   -0.0600
     21 C21       -10.5501   -3.5598   57.5323 C.ar    1  ZINC000532153088   -0.1700
     22 C22       -11.9088   -3.2990   57.4789 C.ar    1  ZINC000532153088    0.1300
     23 F23       -12.6725   -3.8845   56.5305 F       1  ZINC000532153088   -0.1300
     24 C24       -12.4846   -2.4386   58.3979 C.ar    1  ZINC000532153088   -0.2000
     25 C25       -11.7021   -1.8441   59.3724 C.ar    1  ZINC000532153088    0.1600
     26 F26       -12.2626   -1.0041   60.2698 F       1  ZINC000532153088   -0.1100
     27 C27        -8.9998    0.7262   61.4179 C.3     1  ZINC000532153088    0.0200
     28 C28        -9.5421    2.1472   61.5842 C.3     1  ZINC000532153088   -0.2200
     29 C29       -10.0911    1.0126   62.4514 C.3     1  ZINC000532153088   -0.1700
     30 H30        -8.3259    4.8208   50.4598 H       1  ZINC000532153088    0.0700
     31 H31        -9.3685    4.8454   51.9022 H       1  ZINC000532153088    0.0600
     32 H32        -7.7948    5.6769   51.9272 H       1  ZINC000532153088    0.0700
     33 H33        -8.2122    2.6635   51.6771 H       1  ZINC000532153088    0.0600
     34 H34        -5.6795    4.3472   51.9374 H       1  ZINC000532153088    0.0600
     35 H35        -5.7463    2.5686   51.9196 H       1  ZINC000532153088    0.0600
     36 H36        -6.2106    3.4912   50.4700 H       1  ZINC000532153088    0.0700
     37 H37        -6.0393    2.2955   53.7493 H       1  ZINC000532153088    0.0600
     38 H38        -7.1343    2.4216   55.1470 H       1  ZINC000532153088    0.0600
     39 H39        -6.5555    0.8285   51.8957 H       1  ZINC000532153088    0.1300
     40 H40        -7.7566   -1.1828   51.1363 H       1  ZINC000532153088    0.1200
     41 H41        -9.6922   -2.0152   52.4103 H       1  ZINC000532153088    0.1300
     42 H42       -10.4265   -0.8370   54.4442 H       1  ZINC000532153088    0.1300
     43 H43        -9.1574    2.4428   55.4498 H       1  ZINC000532153088    0.0800
     44 H44       -10.4173    1.2123   55.7079 H       1  ZINC000532153088    0.0800
     45 H45        -7.6895    0.5761   56.6131 H       1  ZINC000532153088    0.4000
     46 H46        -7.9452   -0.6705   58.8310 H       1  ZINC000532153088    0.0700
     47 H47        -7.7154    0.9913   59.4260 H       1  ZINC000532153088    0.1100
     48 H48        -8.4930   -1.8938   60.4650 H       1  ZINC000532153088    0.0900
     49 H49        -9.9424   -1.6061   61.4573 H       1  ZINC000532153088    0.0500
     50 H50        -8.7088   -3.1651   58.5434 H       1  ZINC000532153088    0.1400
     51 H51       -10.1008   -4.2308   56.8152 H       1  ZINC000532153088    0.1400
     52 H52       -13.5444   -2.2345   58.3570 H       1  ZINC000532153088    0.1500
     53 H53        -7.9954    0.5238   61.7895 H       1  ZINC000532153088    0.1200
     54 H54        -8.8942    2.8801   62.0652 H       1  ZINC000532153088    0.1000
     55 H55       -10.1870    2.5353   60.7957 H       1  ZINC000532153088    0.1000
     56 H56       -11.0972    0.6542   62.2335 H       1  ZINC000532153088    0.1000
     57 H57        -9.8044    0.9990   63.5030 H       1  ZINC000532153088    0.1000
@<TRIPOS>BOND
     1     1     2    1
     2     1    30    1
     3     1    31    1
     4     1    32    1
     5     2     3    1
     6     2     4    1
     7     2    33    1
     8     3    34    1
     9     3    35    1
    10     3    36    1
    11     4     5    1
    12     5     6    1
    13     5    37    1
    14     5    38    1
    15     6    11   ar
    16     6     7   ar
    17     7     8   ar
    18     7    39    1
    19     8     9   ar
    20     8    40    1
    21     9    10   ar
    22     9    41    1
    23    10    11   ar
    24    10    42    1
    25    11    12    1
    26    12    13    1
    27    12    43    1
    28    12    44    1
    29    13    14   am
    30    13    45    1
    31    14    15    2
    32    14    16    1
    33    16    17    1
    34    16    46    1
    35    16    47    1
    36    17    18    1
    37    17    27    1
    38    18    19    1
    39    18    48    1
    40    18    49    1
    41    19    25   ar
    42    19    20   ar
    43    20    21   ar
    44    20    50    1
    45    21    22   ar
    46    21    51    1
    47    22    23    1
    48    22    24   ar
    49    24    25   ar
    50    24    52    1
    51    25    26    1
    52    27    29    1
    53    27    28    1
    54    27    53    1
    55    28    29    1
    56    28    54    1
    57    28    55    1
    58    29    56    1
    59    29    57    1
@<TRIPOS>SUBSTRUCTURE
     1 ZINC000532153088        1 TEMP              0 ****  ****    0 ROOT


##########                                Name:    ZINC000484900616
##########                DOCK_Rotatable_Bonds:                  10
##########                         Heavy_Atoms:                  29
##########                    Molecular_Weight:             415.556
##########                DOCK_Rotatable_Bonds:                  10
##########                       Formal_Charge:        -1.49012e-08
##########                     HBond_Acceptors:                   7
##########                        HBond_Donors:                   1
##########                         Heavy_Atoms:                  29
##########                          Grid_Score:          -33.220215
##########                     Grid_vdw_energy:          -32.000355
##########                      Grid_es_energy:           -1.219860
##########           Internal_energy_repulsive:           11.238957

@<TRIPOS>MOLECULE
ZINC000484900616
 58 60 1 0 0
SMALL
USER_CHARGES


@<TRIPOS>ATOM
      1 C1         -9.9339    4.9093   63.6759 C.3     1  ZINC000484900616   -0.1500
      2 C2        -11.0246    4.1227   62.9461 C.3     1  ZINC000484900616    0.0600
      3 O3        -10.4694    2.8794   62.4418 O.3     1  ZINC000484900616   -0.3400
      4 C4        -11.3057    2.0643   61.7686 C.2     1  ZINC000484900616    0.5500
      5 O5        -12.4673    2.3840   61.6076 O.2     1  ZINC000484900616   -0.5000
      6 C6        -10.8126    0.7876   61.2288 C.2     1  ZINC000484900616    0.0200
      7 C7         -9.5371    0.3634   61.3807 C.2     1  ZINC000484900616   -0.2400
      8 S8         -9.3663   -1.1557   60.6157 S.3     1  ZINC000484900616    0.2900
      9 C9        -11.0056   -1.1372   60.1375 C.2     1  ZINC000484900616    0.0300
     10 C10       -11.6819   -2.2295   59.3496 C.3     1  ZINC000484900616    0.1500
     11 H11       -11.1900   -3.1856   59.5284 H       1  ZINC000484900616    0.0900
     12 C12       -13.1820   -2.3161   59.7259 C.3     1  ZINC000484900616   -0.1200
     13 C13       -13.7865   -2.9699   58.4555 C.3     1  ZINC000484900616   -0.1400
     14 C14       -12.9447   -2.3586   57.3157 C.3     1  ZINC000484900616    0.0500
     15 N15       -11.6700   -1.9064   57.9070 N.3     1  ZINC000484900616   -0.5100
     16 C16       -10.5253   -2.5328   57.2324 C.3     1  ZINC000484900616    0.0300
     17 C17       -10.5126   -2.1254   55.7816 C.2     1  ZINC000484900616    0.5200
     18 O18       -10.0014   -2.8488   54.9531 O.2     1  ZINC000484900616   -0.5100
     19 N19       -11.0693   -0.9574   55.4047 N.am    1  ZINC000484900616   -0.7300
     20 C20       -11.0585   -0.5622   53.9940 C.3     1  ZINC000484900616    0.1900
     21 H21       -11.2820   -1.4289   53.3721 H       1  ZINC000484900616    0.1000
     22 C22       -12.1146    0.5199   53.7595 C.3     1  ZINC000484900616   -0.1600
     23 C23        -9.6982   -0.0228   53.6338 C.ar    1  ZINC000484900616   -0.1000
     24 C24        -8.9829   -0.5891   52.5952 C.ar    1  ZINC000484900616   -0.1100
     25 C25        -7.7351   -0.0943   52.2648 C.ar    1  ZINC000484900616   -0.1100
     26 C26        -7.2028    0.9670   52.9727 C.ar    1  ZINC000484900616   -0.0800
     27 C27        -5.8423    1.5061   52.6128 C.3     1  ZINC000484900616   -0.0900
     28 C28        -5.9834    2.5420   51.4957 C.3     1  ZINC000484900616   -0.1500
     29 C29        -7.9186    1.5342   54.0104 C.ar    1  ZINC000484900616   -0.1100
     30 C30        -9.1681    1.0418   54.3383 C.ar    1  ZINC000484900616   -0.1000
     31 N31       -11.5841   -0.0642   60.5475 N.2     1  ZINC000484900616   -0.4300
     32 H32        -9.5539    4.3169   64.5083 H       1  ZINC000484900616    0.0700
     33 H33        -9.1201    5.1287   62.9847 H       1  ZINC000484900616    0.0700
     34 H34       -10.3507    5.8426   64.0546 H       1  ZINC000484900616    0.0800
     35 H35       -11.8384    3.9032   63.6372 H       1  ZINC000484900616    0.0700
     36 H36       -11.4046    4.7150   62.1138 H       1  ZINC000484900616    0.0700
     37 H37        -8.7548    0.8970   61.9002 H       1  ZINC000484900616    0.1900
     38 H38       -13.3294   -2.9511   60.5996 H       1  ZINC000484900616    0.0900
     39 H39       -13.6011   -1.3236   59.8913 H       1  ZINC000484900616    0.0800
     40 H40       -13.6664   -4.0529   58.4851 H       1  ZINC000484900616    0.0700
     41 H41       -14.8370   -2.7005   58.3460 H       1  ZINC000484900616    0.0800
     42 H42       -12.7509   -3.1122   56.5525 H       1  ZINC000484900616    0.0600
     43 H43       -13.4729   -1.5115   56.8779 H       1  ZINC000484900616    0.0900
     44 H44        -9.6004   -2.2080   57.7091 H       1  ZINC000484900616    0.1100
     45 H45       -10.6100   -3.6171   57.3046 H       1  ZINC000484900616    0.0700
     46 H46       -11.4770   -0.3782   56.0675 H       1  ZINC000484900616    0.4000
     47 H47       -12.1065    0.8139   52.7100 H       1  ZINC000484900616    0.0700
     48 H48       -13.0985    0.1297   54.0200 H       1  ZINC000484900616    0.0700
     49 H49       -11.8910    1.3866   54.3815 H       1  ZINC000484900616    0.0600
     50 H50        -9.3988   -1.4183   52.0422 H       1  ZINC000484900616    0.1200
     51 H51        -7.1760   -0.5373   51.4539 H       1  ZINC000484900616    0.1200
     52 H52        -5.3940    1.9750   53.4887 H       1  ZINC000484900616    0.0700
     53 H53        -5.2061    0.6890   52.2724 H       1  ZINC000484900616    0.0700
     54 H54        -6.4317    2.0730   50.6198 H       1  ZINC000484900616    0.0600
     55 H55        -6.6195    3.3590   51.8360 H       1  ZINC000484900616    0.0600
     56 H56        -4.9994    2.9318   51.2354 H       1  ZINC000484900616    0.0600
     57 H57        -7.5029    2.3636   54.5632 H       1  ZINC000484900616    0.1200
     58 H58        -9.7274    1.4850   55.1490 H       1  ZINC000484900616    0.1200
@<TRIPOS>BOND
     1     1     2    1
     2     1    32    1
     3     1    33    1
     4     1    34    1
     5     2     3    1
     6     2    35    1
     7     2    36    1
     8     3     4    1
     9     4     5    2
    10     4     6    1
    11     6    31    1
    12     6     7    2
    13     7     8    1
    14     7    37    1
    15     8     9    1
    16     9    10    1
    17     9    31    2
    18    10    11    1
    19    10    15    1
    20    10    12    1
    21    12    13    1
    22    12    38    1
    23    12    39    1
    24    13    14    1
    25    13    40    1
    26    13    41    1
    27    14    15    1
    28    14    42    1
    29    14    43    1
    30    15    16    1
    31    16    17    1
    32    16    44    1
    33    16    45    1
    34    17    18    2
    35    17    19   am
    36    19    20    1
    37    19    46    1
    38    20    21    1
    39    20    22    1
    40    20    23    1
    41    22    47    1
    42    22    48    1
    43    22    49    1
    44    23    30   ar
    45    23    24   ar
    46    24    25   ar
    47    24    50    1
    48    25    26   ar
    49    25    51    1
    50    26    27    1
    51    26    29   ar
    52    27    28    1
    53    27    52    1
    54    27    53    1
    55    28    54    1
    56    28    55    1
    57    28    56    1
    58    29    30   ar
    59    29    57    1
    60    30    58    1
@<TRIPOS>SUBSTRUCTURE
     1 ZINC000484900616        1 TEMP              0 ****  ****    0 ROOT


##########                                Name:    ZINC001342629575
##########                DOCK_Rotatable_Bonds:                   9
##########                         Heavy_Atoms:                  29
##########                    Molecular_Weight:             396.533
##########                DOCK_Rotatable_Bonds:                   9
##########                       Formal_Charge:         -0.00999976
##########                     HBond_Acceptors:                   6
##########                        HBond_Donors:                   0
##########                         Heavy_Atoms:                  29
##########                          Grid_Score:          -33.180153
##########                     Grid_vdw_energy:          -32.822346
##########                      Grid_es_energy:           -0.357806
##########           Internal_energy_repulsive:           25.660995

@<TRIPOS>MOLECULE
ZINC001342629575
 61 64 1 0 0
SMALL
USER_CHARGES


@<TRIPOS>ATOM
      1 C1         -9.1053    3.4755   59.1315 C.2     1  ZINC001342629575   -0.1800
      2 C2         -9.1412    2.1671   59.1842 C.2     1  ZINC001342629575   -0.1600
      3 C3         -8.7725    1.4539   60.4595 C.3     1  ZINC001342629575   -0.0800
      4 C4        -10.0331    1.2149   61.2929 C.3     1  ZINC001342629575    0.0500
      5 H5        -10.6710    2.0977   61.2482 H       1  ZINC001342629575    0.0900
      6 C6        -10.7804    0.0269   60.7442 C.2     1  ZINC001342629575    0.2000
      7 N7        -10.3560   -1.2046   60.7118 N.2     1  ZINC001342629575   -0.2700
      8 N8        -11.2451   -1.9633   60.1771 N.2     1  ZINC001342629575   -0.3000
      9 C9        -12.2931   -1.2506   59.8369 C.2     1  ZINC001342629575    0.3400
     10 N10       -13.4491   -1.7212   59.2347 N.3     1  ZINC001342629575   -0.4300
     11 C11       -14.2964   -2.4549   60.2098 C.3     1  ZINC001342629575    0.0400
     12 C12       -15.2090   -3.3453   59.3394 C.3     1  ZINC001342629575   -0.1200
     13 C13       -14.4439   -3.5273   58.0123 C.3     1  ZINC001342629575   -0.1200
     14 C14       -13.1332   -2.7318   58.1927 C.3     1  ZINC001342629575    0.0700
     15 H15       -12.3327   -3.3895   58.5313 H       1  ZINC001342629575    0.0900
     16 C16       -12.7407   -2.0460   56.8825 C.3     1  ZINC001342629575    0.1000
     17 H17       -13.5394   -2.1634   56.1501 H       1  ZINC001342629575    0.0700
     18 C18       -11.4355   -2.6649   56.3379 C.3     1  ZINC001342629575   -0.1400
     19 C19       -10.6842   -1.4209   55.7903 C.3     1  ZINC001342629575   -0.1600
     20 C20       -11.1288   -0.3381   56.8057 C.3     1  ZINC001342629575    0.0500
     21 O21       -12.4971   -0.6540   57.1166 O.3     1  ZINC001342629575   -0.3700
     22 N22       -12.0319    0.0404   60.1934 N.pl3   1  ZINC001342629575   -0.4600
     23 C23       -12.9067    1.2017   60.0142 C.3     1  ZINC001342629575    0.1100
     24 C24       -14.1796    1.0140   60.8421 C.3     1  ZINC001342629575    0.0500
     25 O25       -13.8316    0.8309   62.2159 O.3     1  ZINC001342629575   -0.3800
     26 C26       -13.6881    2.0505   62.9466 C.3     1  ZINC001342629575    0.0300
     27 C27        -9.6457    0.9473   62.7244 C.ar    1  ZINC001342629575   -0.0900
     28 C28        -8.7833   -0.0906   63.0246 C.ar    1  ZINC001342629575   -0.0900
     29 C29        -8.4279   -0.3361   64.3377 C.ar    1  ZINC001342629575   -0.1200
     30 C30        -8.9345    0.4564   65.3507 C.ar    1  ZINC001342629575   -0.1200
     31 C31        -9.7962    1.4949   65.0505 C.ar    1  ZINC001342629575   -0.1200
     32 C32       -10.1481    1.7431   63.7369 C.ar    1  ZINC001342629575   -0.1100
     33 H33        -9.3694    3.9866   58.2175 H       1  ZINC001342629575    0.1000
     34 H34        -8.8158    4.0433   60.0034 H       1  ZINC001342629575    0.1000
     35 H35        -9.4348    1.5994   58.3136 H       1  ZINC001342629575    0.1000
     36 H36        -8.3087    0.4971   60.2197 H       1  ZINC001342629575    0.0900
     37 H37        -8.0715    2.0651   61.0279 H       1  ZINC001342629575    0.0800
     38 H38       -13.6780   -3.0694   60.8640 H       1  ZINC001342629575    0.0600
     39 H39       -14.8937   -1.7563   60.7957 H       1  ZINC001342629575    0.0800
     40 H40       -15.3671   -4.3104   59.8207 H       1  ZINC001342629575    0.0800
     41 H41       -16.1632   -2.8495   59.1611 H       1  ZINC001342629575    0.0800
     42 H42       -14.2262   -4.5818   57.8424 H       1  ZINC001342629575    0.0800
     43 H43       -15.0224   -3.1209   57.1828 H       1  ZINC001342629575    0.0800
     44 H44       -10.8678   -3.1396   57.1382 H       1  ZINC001342629575    0.0900
     45 H45       -11.6468   -3.3739   55.5374 H       1  ZINC001342629575    0.0800
     46 H46        -9.6047   -1.5686   55.8211 H       1  ZINC001342629575    0.0800
     47 H47       -11.0163   -1.1737   54.7819 H       1  ZINC001342629575    0.0800
     48 H48       -10.5146   -0.3878   57.7049 H       1  ZINC001342629575    0.0600
     49 H49       -11.0629    0.6524   56.3558 H       1  ZINC001342629575    0.0900
     50 H50       -12.3880    2.1018   60.3442 H       1  ZINC001342629575    0.1000
     51 H51       -13.1695    1.2995   58.9608 H       1  ZINC001342629575    0.1100
     52 H52       -14.8116    1.8964   60.7419 H       1  ZINC001342629575    0.0600
     53 H53       -14.7199    0.1375   60.4842 H       1  ZINC001342629575    0.0600
     54 H54       -13.4237    1.8261   63.9799 H       1  ZINC001342629575    0.0900
     55 H55       -12.9026    2.6553   62.4936 H       1  ZINC001342629575    0.0400
     56 H56       -14.6289    2.6006   62.9237 H       1  ZINC001342629575    0.0400
     57 H57        -8.3875   -0.7098   62.2332 H       1  ZINC001342629575    0.1300
     58 H58        -7.7547   -1.1474   64.5722 H       1  ZINC001342629575    0.1200
     59 H59        -8.6574    0.2642   66.3766 H       1  ZINC001342629575    0.1200
     60 H60       -10.1922    2.1138   65.8419 H       1  ZINC001342629575    0.1200
     61 H61       -10.8213    2.5544   63.5024 H       1  ZINC001342629575    0.1200
@<TRIPOS>BOND
     1     1     2    2
     2     1    33    1
     3     1    34    1
     4     2     3    1
     5     2    35    1
     6     3     4    1
     7     3    36    1
     8     3    37    1
     9     4     5    1
    10     4     6    1
    11     4    27    1
    12     6    22    1
    13     6     7    2
    14     7     8    1
    15     8     9    2
    16     9    10    1
    17     9    22    1
    18    10    14    1
    19    10    11    1
    20    11    12    1
    21    11    38    1
    22    11    39    1
    23    12    13    1
    24    12    40    1
    25    12    41    1
    26    13    14    1
    27    13    42    1
    28    13    43    1
    29    14    15    1
    30    14    16    1
    31    16    17    1
    32    16    21    1
    33    16    18    1
    34    18    19    1
    35    18    44    1
    36    18    45    1
    37    19    20    1
    38    19    46    1
    39    19    47    1
    40    20    21    1
    41    20    48    1
    42    20    49    1
    43    22    23    1
    44    23    24    1
    45    23    50    1
    46    23    51    1
    47    24    25    1
    48    24    52    1
    49    24    53    1
    50    25    26    1
    51    26    54    1
    52    26    55    1
    53    26    56    1
    54    27    32   ar
    55    27    28   ar
    56    28    29   ar
    57    28    57    1
    58    29    30   ar
    59    29    58    1
    60    30    31   ar
    61    30    59    1
    62    31    32   ar
    63    31    60    1
    64    32    61    1
@<TRIPOS>SUBSTRUCTURE
     1 ZINC001342629575        1 TEMP              0 ****  ****    0 ROOT


##########                                Name:    ZINC000859496582
##########                DOCK_Rotatable_Bonds:                  10
##########                         Heavy_Atoms:                  26
##########                    Molecular_Weight:             361.438
##########                DOCK_Rotatable_Bonds:                  10
##########                       Formal_Charge:           0.0100006
##########                     HBond_Acceptors:                   6
##########                        HBond_Donors:                   0
##########                         Heavy_Atoms:                  26
##########                          Grid_Score:          -33.023983
##########                     Grid_vdw_energy:          -31.811079
##########                      Grid_es_energy:           -1.212903
##########           Internal_energy_repulsive:           24.758200

@<TRIPOS>MOLECULE
ZINC000859496582
 53 54 1 0 0
SMALL
USER_CHARGES


@<TRIPOS>ATOM
      1 C1         -7.7444    3.7603   51.4053 C.3     1  ZINC000859496582    0.0300
      2 O2         -6.4652    3.2396   50.9572 O.3     1  ZINC000859496582   -0.3600
      3 C3         -5.9567    2.2019   51.6402 C.2     1  ZINC000859496582    0.4600
      4 O4         -4.8947    1.7265   51.3145 O.2     1  ZINC000859496582   -0.5100
      5 C5         -6.7103    1.6299   52.8132 C.3     1  ZINC000859496582   -0.1100
      6 C6         -7.8412    0.7335   52.3047 C.3     1  ZINC000859496582   -0.1100
      7 C7         -8.7803    0.3908   53.4629 C.3     1  ZINC000859496582   -0.1200
      8 C8         -9.8250   -0.6221   52.9898 C.3     1  ZINC000859496582    0.0700
      9 O9        -10.6514   -1.0256   54.1134 O.3     1  ZINC000859496582   -0.3500
     10 C10       -10.1196   -1.9057   54.9760 C.2     1  ZINC000859496582    0.4700
     11 O11        -9.6072   -2.9199   54.5654 O.2     1  ZINC000859496582   -0.5000
     12 C12       -10.1615   -1.6288   56.4569 C.3     1  ZINC000859496582   -0.1000
     13 H13        -9.6265   -2.4151   56.9893 H       1  ZINC000859496582    0.1200
     14 C14       -11.6170   -1.5918   56.9285 C.3     1  ZINC000859496582   -0.1100
     15 C15       -11.6597   -1.3434   58.4380 C.3     1  ZINC000859496582   -0.1300
     16 C16       -11.0168    0.0125   58.7466 C.3     1  ZINC000859496582    0.1100
     17 N17        -9.6661    0.0378   58.1689 N.am    1  ZINC000859496582   -0.6100
     18 C18        -8.5983    0.3435   58.9323 C.2     1  ZINC000859496582    0.5700
     19 O19        -7.4860    0.3610   58.4425 O.2     1  ZINC000859496582   -0.5300
     20 C20        -8.7799    0.6574   60.3656 C.ar    1  ZINC000859496582   -0.1400
     21 C21        -9.1591    1.9417   60.7594 C.ar    1  ZINC000859496582   -0.0900
     22 C22        -9.3272    2.2279   62.0984 C.ar    1  ZINC000859496582   -0.1200
     23 C23        -9.1205    1.2452   63.0502 C.ar    1  ZINC000859496582   -0.0600
     24 C24        -9.3057    1.5652   64.5112 C.3     1  ZINC000859496582   -0.1200
     25 C25        -8.7451   -0.0300   62.6666 C.ar    1  ZINC000859496582   -0.1200
     26 C26        -8.5787   -0.3308   61.3306 C.ar    1  ZINC000859496582   -0.0600
     27 C27        -9.5009   -0.2767   56.7431 C.3     1  ZINC000859496582    0.1100
     28 H28        -7.6562    4.1033   52.4361 H       1  ZINC000859496582    0.0600
     29 H29        -8.0402    4.5943   50.7688 H       1  ZINC000859496582    0.1000
     30 H30        -8.4972    2.9742   51.3470 H       1  ZINC000859496582    0.0600
     31 H31        -6.0305    1.0425   53.4302 H       1  ZINC000859496582    0.1100
     32 H32        -7.1297    2.4423   53.4068 H       1  ZINC000859496582    0.1100
     33 H33        -8.3983    1.2569   51.5277 H       1  ZINC000859496582    0.0800
     34 H34        -7.4205   -0.1846   51.8943 H       1  ZINC000859496582    0.0800
     35 H35        -8.2044   -0.0374   54.2832 H       1  ZINC000859496582    0.0800
     36 H36        -9.2812    1.2966   53.8046 H       1  ZINC000859496582    0.0800
     37 H37       -10.4516   -0.1667   52.2230 H       1  ZINC000859496582    0.0700
     38 H38        -9.3221   -1.4963   52.5763 H       1  ZINC000859496582    0.0700
     39 H39       -12.1454   -0.7897   56.4133 H       1  ZINC000859496582    0.0800
     40 H40       -12.0959   -2.5448   56.7037 H       1  ZINC000859496582    0.0800
     41 H41       -12.6956   -1.3404   58.7771 H       1  ZINC000859496582    0.0900
     42 H42       -11.1103   -2.1319   58.9522 H       1  ZINC000859496582    0.0700
     43 H43       -11.6169    0.8097   58.3081 H       1  ZINC000859496582    0.0700
     44 H44       -10.9551    0.1503   59.8261 H       1  ZINC000859496582    0.1000
     45 H45        -9.3200    2.7098   60.0174 H       1  ZINC000859496582    0.1300
     46 H46        -9.6205    3.2213   62.4044 H       1  ZINC000859496582    0.1300
     47 H47       -10.3392    1.3706   64.7976 H       1  ZINC000859496582    0.0800
     48 H48        -8.6398    0.9410   65.1070 H       1  ZINC000859496582    0.0700
     49 H49        -9.0719    2.6154   64.6855 H       1  ZINC000859496582    0.0700
     50 H50        -8.5857   -0.7926   63.4145 H       1  ZINC000859496582    0.1300
     51 H51        -8.2859   -1.3267   61.0324 H       1  ZINC000859496582    0.1300
     52 H52        -8.4394   -0.3291   56.5011 H       1  ZINC000859496582    0.1100
     53 H53        -9.9774    0.4968   56.1407 H       1  ZINC000859496582    0.0800
@<TRIPOS>BOND
     1     1     2    1
     2     1    28    1
     3     1    29    1
     4     1    30    1
     5     2     3    1
     6     3     4    2
     7     3     5    1
     8     5     6    1
     9     5    31    1
    10     5    32    1
    11     6     7    1
    12     6    33    1
    13     6    34    1
    14     7     8    1
    15     7    35    1
    16     7    36    1
    17     8     9    1
    18     8    37    1
    19     8    38    1
    20     9    10    1
    21    10    11    2
    22    10    12    1
    23    12    13    1
    24    12    27    1
    25    12    14    1
    26    14    15    1
    27    14    39    1
    28    14    40    1
    29    15    16    1
    30    15    41    1
    31    15    42    1
    32    16    17    1
    33    16    43    1
    34    16    44    1
    35    17    18   am
    36    17    27    1
    37    18    19    2
    38    18    20    1
    39    20    26   ar
    40    20    21   ar
    41    21    22   ar
    42    21    45    1
    43    22    23   ar
    44    22    46    1
    45    23    24    1
    46    23    25   ar
    47    24    47    1
    48    24    48    1
    49    24    49    1
    50    25    26   ar
    51    25    50    1
    52    26    51    1
    53    27    52    1
    54    27    53    1
@<TRIPOS>SUBSTRUCTURE
     1 ZINC000859496582        1 TEMP              0 ****  ****    0 ROOT


##########                                Name:     oleObject14.pdb
##########                DOCK_Rotatable_Bonds:                   9
##########                         Heavy_Atoms:                  33
##########                    Molecular_Weight:             484.424
##########                DOCK_Rotatable_Bonds:                   9
##########                       Formal_Charge:         0.000299782
##########                     HBond_Acceptors:                   7
##########                        HBond_Donors:                   1
##########                         Heavy_Atoms:                  33
##########                          Grid_Score:          -33.014782
##########                     Grid_vdw_energy:          -32.850052
##########                      Grid_es_energy:           -0.164732
##########           Internal_energy_repulsive:            8.924526

@<TRIPOS>MOLECULE
oleObject14.pdb
 60 63 1 0 0
SMALL
NO_CHARGES


@<TRIPOS>ATOM
      1 C          -6.8916    2.2156   52.7168 C.ar    1  UNL         0.0422
      2 C          -7.2238    0.9637   52.1755 C.ar    1  UNL        -0.0408
      3 C          -7.8871    0.0092   52.9646 C.ar    1  UNL        -0.0288
      4 C          -8.2222    0.3039   54.3036 C.ar    1  UNL         0.0937
      5 C          -7.8850    1.5639   54.8390 C.ar    1  UNL         0.0723
      6 C          -7.2216    2.5163   54.0475 C.ar    1  UNL        -0.0221
      7 CL         -8.2827    1.9716   56.4977 Cl      1  UNL        -0.0814
      8 O          -8.8743   -0.6066   55.1129 O.3     1  UNL        -0.3432
      9 C         -10.1582   -1.1743   54.7985 C.3     1  UNL         0.0661
     10 C         -11.1841   -0.5997   55.7973 C.3     1  UNL         0.0222
     11 N         -11.2201   -1.3237   57.0874 N.4     1  UNL        -0.3010
     12 C         -10.0878   -1.0134   57.9913 C.3     1  UNL        -0.0010
     13 C         -10.1175   -1.8797   59.2702 C.3     1  UNL        -0.0289
     14 C         -11.4669   -1.7936   60.0235 C.3     1  UNL         0.0382
     15 C         -12.6408   -2.0281   59.0395 C.3     1  UNL        -0.0289
     16 C         -12.5364   -1.1844   57.7473 C.3     1  UNL        -0.0010
     17 C         -11.6060   -0.4597   60.7982 C.2     1  UNL         0.2156
     18 O         -12.5855    0.2538   60.6803 O.2     1  UNL        -0.2774
     19 N         -10.6155   -0.0733   61.6920 N.am    1  UNL        -0.3025
     20 C         -10.5719    1.1506   62.5141 C.3     1  UNL         0.0900
     21 C          -9.8000    0.9643   63.8190 C.ar    1  UNL        -0.0217
     22 C         -10.0512    1.7838   64.9380 C.ar    1  UNL        -0.0568
     23 C          -9.3244    1.6061   66.1265 C.ar    1  UNL        -0.0619
     24 C          -8.3431    0.6056   66.2077 C.ar    1  UNL        -0.0622
     25 C          -8.0914   -0.2187   65.0998 C.ar    1  UNL        -0.0619
     26 C          -8.8184   -0.0408   63.9114 C.ar    1  UNL        -0.0568
     27 C         -10.0247    2.3384   61.7283 C.ar    1  UNL         0.0652
     28 C          -9.0790    2.1717   60.6955 C.ar    1  UNL        -0.0383
     29 C          -8.6063    3.3049   60.0145 C.ar    1  UNL        -0.0588
     30 C          -9.0945    4.5659   60.3906 C.ar    1  UNL        -0.0438
     31 C         -10.0347    4.6423   61.4324 C.ar    1  UNL         0.0272
     32 N         -10.4896    3.5551   62.0876 N.ar    1  UNL        -0.2590
     33 CL         -6.0651    3.4028   51.7309 Cl      1  UNL        -0.0843
     34 H          -6.9682    0.7319   51.1454 H       1  UNL         0.0639
     35 H          -8.1345   -0.9517   52.5254 H       1  UNL         0.0652
     36 H          -6.9642    3.4854   54.4655 H       1  UNL         0.0655
     37 H         -10.1158   -2.2667   54.8852 H       1  UNL         0.0586
     38 H         -10.4533   -0.9040   53.7765 H       1  UNL         0.0586
     39 H         -12.1740   -0.6554   55.3257 H       1  UNL         0.0455
     40 H         -10.9609    0.4613   55.9700 H       1  UNL         0.0455
     41 H         -10.1182    0.0478   58.2715 H       1  UNL         0.0431
     42 H          -9.1316   -1.1953   57.4874 H       1  UNL         0.0431
     43 H          -9.2934   -1.5879   59.9316 H       1  UNL         0.0288
     44 H          -9.9362   -2.9246   58.9870 H       1  UNL         0.0288
     45 H         -11.4983   -2.6242   60.7335 H       1  UNL         0.0402
     46 H         -13.5967   -1.8274   59.5397 H       1  UNL         0.0288
     47 H         -12.6532   -3.0886   58.7558 H       1  UNL         0.0288
     48 H         -12.7186   -0.1290   57.9857 H       1  UNL         0.0431
     49 H         -13.3311   -1.5039   57.0607 H       1  UNL         0.0431
     50 H          -9.8901   -0.7583   61.8615 H       1  UNL         0.1504
     51 H         -11.6111    1.3983   62.7659 H       1  UNL         0.0624
     52 H         -10.8029    2.5659   64.8865 H       1  UNL         0.0626
     53 H          -9.5210    2.2444   66.9833 H       1  UNL         0.0623
     54 H          -7.7813    0.4679   67.1272 H       1  UNL         0.0623
     55 H          -7.3349   -0.9957   65.1621 H       1  UNL         0.0623
     56 H          -8.6174   -0.6854   63.0602 H       1  UNL         0.0626
     57 H          -8.7171    1.1842   60.4257 H       1  UNL         0.0643
     58 H          -7.8783    3.2078   59.2143 H       1  UNL         0.0624
     59 H          -8.7524    5.4654   59.8873 H       1  UNL         0.0639
     60 H         -10.4357    5.6032   61.7526 H       1  UNL         0.0840
@<TRIPOS>BOND
     1     1     2   ar
     2     1     6   ar
     3     1    33    1
     4     2     3   ar
     5     2    34    1
     6     3     4   ar
     7     3    35    1
     8     4     5   ar
     9     4     8    1
    10     5     6   ar
    11     5     7    1
    12     6    36    1
    13     8     9    1
    14     9    10    1
    15     9    37    1
    16     9    38    1
    17    10    11    1
    18    10    39    1
    19    10    40    1
    20    11    12    1
    21    11    16    1
    22    12    13    1
    23    12    41    1
    24    12    42    1
    25    13    14    1
    26    13    43    1
    27    13    44    1
    28    14    15    1
    29    14    17    1
    30    14    45    1
    31    15    16    1
    32    15    46    1
    33    15    47    1
    34    16    48    1
    35    16    49    1
    36    17    18    2
    37    17    19   am
    38    19    20    1
    39    19    50    1
    40    20    21    1
    41    20    27    1
    42    20    51    1
    43    21    22   ar
    44    21    26   ar
    45    22    23   ar
    46    22    52    1
    47    23    24   ar
    48    23    53    1
    49    24    25   ar
    50    24    54    1
    51    25    26   ar
    52    25    55    1
    53    26    56    1
    54    27    28   ar
    55    27    32   ar
    56    28    29   ar
    57    28    57    1
    58    29    30   ar
    59    29    58    1
    60    30    31   ar
    61    30    59    1
    62    31    32   ar
    63    31    60    1
@<TRIPOS>SUBSTRUCTURE
     1 UNL         1 TEMP              0 ****  ****    0 ROOT


##########                                Name:    ZINC000583220082
##########                DOCK_Rotatable_Bonds:                   9
##########                         Heavy_Atoms:                  29
##########                    Molecular_Weight:             417.492
##########                DOCK_Rotatable_Bonds:                   9
##########                       Formal_Charge:          -0.0400006
##########                     HBond_Acceptors:                  11
##########                        HBond_Donors:                   3
##########                         Heavy_Atoms:                  29
##########                          Grid_Score:          -32.980984
##########                     Grid_vdw_energy:          -31.018122
##########                      Grid_es_energy:           -1.962862
##########           Internal_energy_repulsive:           22.006893

@<TRIPOS>MOLECULE
ZINC000583220082
 52 54 1 0 0
SMALL
USER_CHARGES


@<TRIPOS>ATOM
      1 C1        -12.7684    3.4833   64.4572 C.3     1  ZINC000583220082    0.0800
      2 N2        -11.4097    2.9536   64.3167 N.am    1  ZINC000583220082   -0.6300
      3 C3        -10.3112    3.5409   65.0877 C.3     1  ZINC000583220082    0.0800
      4 C4        -11.1705    1.9259   63.4782 C.2     1  ZINC000583220082    0.5100
      5 O5        -12.0802    1.4387   62.8410 O.2     1  ZINC000583220082   -0.5300
      6 C6         -9.7726    1.3822   63.3323 C.3     1  ZINC000583220082   -0.1000
      7 C7         -9.5898    0.8331   61.9408 C.ar    1  ZINC000583220082   -0.0800
      8 C8         -8.7926   -0.2783   61.7371 C.ar    1  ZINC000583220082   -0.0800
      9 C9         -8.6228   -0.7841   60.4634 C.ar    1  ZINC000583220082   -0.1400
     10 C10        -9.2546   -0.1754   59.3861 C.ar    1  ZINC000583220082    0.1400
     11 N11        -9.0854   -0.6848   58.0960 N.am    1  ZINC000583220082   -0.6400
     12 C12       -10.1624   -0.9862   57.3439 C.2     1  ZINC000583220082    0.5100
     13 O13       -11.2793   -0.8151   57.7872 O.2     1  ZINC000583220082   -0.4900
     14 C14        -9.9815   -1.5307   55.9649 C.2     1  ZINC000583220082    0.5100
     15 O15        -9.8662   -2.7268   55.7950 O.2     1  ZINC000583220082   -0.5100
     16 N16        -9.9465   -0.6937   54.9092 N.am    1  ZINC000583220082   -0.5800
     17 C17       -10.0782    0.7596   55.0933 C.3     1  ZINC000583220082    0.0600
     18 C18        -8.9219    1.4497   54.3621 C.3     1  ZINC000583220082    0.0300
     19 N19        -8.8936    1.0008   52.9636 N.3     1  ZINC000583220082   -0.4300
     20 C20        -7.9679    1.7205   52.2308 C.2     1  ZINC000583220082    0.2900
     21 N21        -6.7066    1.4134   52.0129 N.2     1  ZINC000583220082   -0.5700
     22 C22        -6.0094    2.2555   51.2784 C.2     1  ZINC000583220082    0.5400
     23 N23        -4.6658    2.0203   50.9899 N.pl3   1  ZINC000583220082   -0.8200
     24 N24        -6.6214    3.3188   50.8296 N.2     1  ZINC000583220082   -0.5500
     25 S25        -8.2183    3.2085   51.3998 S.3     1  ZINC000583220082    0.2000
     26 C26        -8.6310   -0.4416   52.8722 C.3     1  ZINC000583220082    0.0500
     27 C27        -9.7693   -1.2088   53.5430 C.3     1  ZINC000583220082    0.1100
     28 C28       -10.0551    0.9408   59.5945 C.ar    1  ZINC000583220082   -0.1200
     29 C29       -10.2242    1.4384   60.8715 C.ar    1  ZINC000583220082   -0.0800
     30 H30       -12.9252    4.2792   63.7291 H       1  ZINC000583220082    0.0500
     31 H31       -13.4896    2.6846   64.2834 H       1  ZINC000583220082    0.0800
     32 H32       -12.9014    3.8801   65.4636 H       1  ZINC000583220082    0.0700
     33 H33       -10.6944    4.3535   65.7050 H       1  ZINC000583220082    0.0800
     34 H34        -9.8671    2.7776   65.7266 H       1  ZINC000583220082    0.0600
     35 H35        -9.5550    3.9286   64.4052 H       1  ZINC000583220082    0.0600
     36 H36        -9.0520    2.1815   63.5051 H       1  ZINC000583220082    0.1000
     37 H37        -9.6143    0.5867   64.0605 H       1  ZINC000583220082    0.1000
     38 H38        -8.3018   -0.7511   62.5750 H       1  ZINC000583220082    0.1300
     39 H39        -7.9995   -1.6517   60.3048 H       1  ZINC000583220082    0.1300
     40 H40        -8.1928   -0.8215   57.7417 H       1  ZINC000583220082    0.4200
     41 H41       -11.0277    1.0969   54.6774 H       1  ZINC000583220082    0.0900
     42 H42       -10.0348    0.9995   56.1557 H       1  ZINC000583220082    0.1700
     43 H43        -9.0640    2.5300   54.3945 H       1  ZINC000583220082    0.1100
     44 H44        -7.9799    1.1918   54.8459 H       1  ZINC000583220082    0.0700
     45 H45        -4.2112    1.2593   51.3837 H       1  ZINC000583220082    0.4200
     46 H46        -4.1856    2.6177   50.3954 H       1  ZINC000583220082    0.4200
     47 H47        -8.5623   -0.7331   51.8241 H       1  ZINC000583220082    0.1100
     48 H48        -7.6931   -0.6732   53.3769 H       1  ZINC000583220082    0.0600
     49 H49        -9.5242   -2.2702   53.5791 H       1  ZINC000583220082    0.1100
     50 H50       -10.6912   -1.0619   52.9803 H       1  ZINC000583220082    0.0900
     51 H51       -10.5477    1.4164   58.7592 H       1  ZINC000583220082    0.1400
     52 H52       -10.8465    2.3060   61.0343 H       1  ZINC000583220082    0.1300
@<TRIPOS>BOND
     1     1     2    1
     2     1    30    1
     3     1    31    1
     4     1    32    1
     5     2     3    1
     6     2     4   am
     7     3    33    1
     8     3    34    1
     9     3    35    1
    10     4     5    2
    11     4     6    1
    12     6     7    1
    13     6    36    1
    14     6    37    1
    15     7    29   ar
    16     7     8   ar
    17     8     9   ar
    18     8    38    1
    19     9    10   ar
    20     9    39    1
    21    10    11    1
    22    10    28   ar
    23    11    12   am
    24    11    40    1
    25    12    13    2
    26    12    14    1
    27    14    15    2
    28    14    16   am
    29    16    27    1
    30    16    17    1
    31    17    18    1
    32    17    41    1
    33    17    42    1
    34    18    19    1
    35    18    43    1
    36    18    44    1
    37    19    20    1
    38    19    26    1
    39    20    25    1
    40    20    21    2
    41    21    22    1
    42    22    23    1
    43    22    24    2
    44    23    45    1
    45    23    46    1
    46    24    25    1
    47    26    27    1
    48    26    47    1
    49    26    48    1
    50    27    49    1
    51    27    50    1
    52    28    29   ar
    53    28    51    1
    54    29    52    1
@<TRIPOS>SUBSTRUCTURE
     1 ZINC000583220082        1 TEMP              0 ****  ****    0 ROOT


##########                                Name:    ZINC001000186632
##########                DOCK_Rotatable_Bonds:                   7
##########                         Heavy_Atoms:                  23
##########                    Molecular_Weight:             342.379
##########                DOCK_Rotatable_Bonds:                   7
##########                       Formal_Charge:          -0.0100001
##########                     HBond_Acceptors:                  11
##########                        HBond_Donors:                   2
##########                         Heavy_Atoms:                  23
##########                          Grid_Score:          -32.904419
##########                     Grid_vdw_energy:          -29.423561
##########                      Grid_es_energy:           -3.480856
##########           Internal_energy_repulsive:            5.121323

@<TRIPOS>MOLECULE
ZINC001000186632
 41 43 1 0 0
SMALL
USER_CHARGES


@<TRIPOS>ATOM
      1 O1        -12.5211    1.1011   62.8603 O.2     1  ZINC001000186632   -0.5200
      2 C2        -12.4802    1.3950   61.6843 C.2     1  ZINC001000186632    0.5300
      3 C3        -13.7588    1.6191   60.9188 C.3     1  ZINC001000186632   -0.0500
      4 C4        -14.4208    0.2928   60.6473 C.2     1  ZINC001000186632    0.2400
      5 N5        -15.6572   -0.0132   60.9412 N.2     1  ZINC001000186632   -0.3000
      6 N6        -15.8589   -1.3373   60.5186 N.pl3   1  ZINC001000186632   -0.4800
      7 C7        -14.6949   -1.7456   59.9844 C.2     1  ZINC001000186632    0.2700
      8 N8        -13.8426   -0.7561   60.0635 N.2     1  ZINC001000186632   -0.5400
      9 N9        -11.2912    1.5266   61.0635 N.am    1  ZINC001000186632   -0.7100
     10 C10       -10.0483    1.3087   61.8077 C.3     1  ZINC001000186632    0.1100
     11 C11        -9.5276   -0.1383   61.7346 C.3     1  ZINC001000186632    0.1000
     12 N12        -8.7674    0.3015   60.5486 N.am    1  ZINC001000186632   -0.6500
     13 C13        -8.2632   -0.3219   59.4653 C.2     1  ZINC001000186632    0.5100
     14 O14        -7.6651    0.3140   58.6232 O.2     1  ZINC001000186632   -0.5100
     15 C15        -8.4424   -1.8090   59.3002 C.3     1  ZINC001000186632    0.1500
     16 N16        -9.5682   -2.0682   58.3992 N.am    1  ZINC001000186632   -0.9800
     17 C17       -10.0280   -1.1967   57.3074 C.3     1  ZINC001000186632    0.0800
     18 C18       -10.6765   -2.0407   56.1935 C.3     1  ZINC001000186632   -0.1300
     19 C19       -11.5997   -3.0362   56.9537 C.3     1  ZINC001000186632   -0.6000
     20 S20       -10.5609   -3.4110   58.4181 S.o2    1  ZINC001000186632    2.5700
     21 O21        -9.7034   -4.5171   58.1719 O.2     1  ZINC001000186632   -0.9400
     22 O22       -11.3071   -3.2958   59.6219 O.2     1  ZINC001000186632   -0.9600
     23 C23        -8.7810    1.6981   61.0253 C.3     1  ZINC001000186632    0.0900
     24 H24       -14.4292    2.2461   61.5068 H       1  ZINC001000186632    0.1300
     25 H25       -13.5345    2.1135   59.9737 H       1  ZINC001000186632    0.1200
     26 H26       -16.6758   -1.8544   60.5969 H       1  ZINC001000186632    0.4400
     27 H27       -14.4985   -2.7194   59.5606 H       1  ZINC001000186632    0.2200
     28 H28       -11.2585    1.7654   60.1239 H       1  ZINC001000186632    0.4100
     29 H29       -10.0816    1.7142   62.8189 H       1  ZINC001000186632    0.1200
     30 H30        -8.8993   -0.4223   62.5788 H       1  ZINC001000186632    0.1000
     31 H31       -10.3015   -0.8730   61.5127 H       1  ZINC001000186632    0.0900
     32 H32        -7.5339   -2.2400   58.8796 H       1  ZINC001000186632    0.1100
     33 H33        -8.6431   -2.2608   60.2716 H       1  ZINC001000186632    0.1100
     34 H34       -10.7591   -0.4872   57.6950 H       1  ZINC001000186632    0.0800
     35 H35        -9.1779   -0.6508   56.8985 H       1  ZINC001000186632    0.0900
     36 H36       -11.2642   -1.4076   55.5288 H       1  ZINC001000186632    0.1100
     37 H37        -9.9143   -2.5807   55.6317 H       1  ZINC001000186632    0.1000
     38 H38       -12.5371   -2.5613   57.2430 H       1  ZINC001000186632    0.1400
     39 H39       -11.7815   -3.9340   56.3628 H       1  ZINC001000186632    0.1400
     40 H40        -8.9588    2.4296   60.2370 H       1  ZINC001000186632    0.0900
     41 H41        -7.9332    1.9537   61.6611 H       1  ZINC001000186632    0.1100
@<TRIPOS>BOND
     1     1     2    2
     2     2     3    1
     3     2     9   am
     4     3     4    1
     5     3    24    1
     6     3    25    1
     7     4     8    1
     8     4     5    2
     9     5     6    1
    10     6     7    1
    11     6    26    1
    12     7     8    2
    13     7    27    1
    14     9    10    1
    15     9    28    1
    16    10    23    1
    17    10    11    1
    18    10    29    1
    19    11    12    1
    20    11    30    1
    21    11    31    1
    22    12    13   am
    23    12    23    1
    24    13    14    2
    25    13    15    1
    26    15    16    1
    27    15    32    1
    28    15    33    1
    29    16    20   am
    30    16    17    1
    31    17    18    1
    32    17    34    1
    33    17    35    1
    34    18    19    1
    35    18    36    1
    36    18    37    1
    37    19    20    1
    38    19    38    1
    39    19    39    1
    40    20    21    2
    41    20    22    2
    42    23    40    1
    43    23    41    1
@<TRIPOS>SUBSTRUCTURE
     1 ZINC001000186632        1 TEMP              0 ****  ****    0 ROOT


##########                                Name:    ZINC001083519372
##########                DOCK_Rotatable_Bonds:                   7
##########                         Heavy_Atoms:                  27
##########                    Molecular_Weight:             370.411
##########                DOCK_Rotatable_Bonds:                   7
##########                       Formal_Charge:           0.0399996
##########                     HBond_Acceptors:                   9
##########                        HBond_Donors:                   2
##########                         Heavy_Atoms:                  27
##########                          Grid_Score:          -32.900730
##########                     Grid_vdw_energy:          -31.227633
##########                      Grid_es_energy:           -1.673097
##########           Internal_energy_repulsive:            7.903661

@<TRIPOS>MOLECULE
ZINC001083519372
 49 52 1 0 0
SMALL
USER_CHARGES


@<TRIPOS>ATOM
      1 C1         -4.6251    2.4326   52.1373 C.3     1  ZINC001083519372   -0.1500
      2 C2         -5.8951    2.6401   52.9647 C.3     1  ZINC001083519372   -0.0100
      3 C3         -6.6158    3.9017   52.4850 C.3     1  ZINC001083519372   -0.1500
      4 C4         -6.8032    1.4490   52.7985 C.2     1  ZINC001083519372   -0.0100
      5 C5         -7.6764    0.9788   53.7045 C.2     1  ZINC001083519372   -0.0100
      6 C6         -7.9273    1.5485   55.0769 C.3     1  ZINC001083519372    0.1300
      7 N7         -8.0532    0.4522   56.0466 N.3     1  ZINC001083519372   -0.5000
      8 C8         -7.7390    0.9188   57.4213 C.3     1  ZINC001083519372    0.0300
      9 C9         -8.4115   -0.1487   58.3204 C.3     1  ZINC001083519372    0.1500
     10 H10        -7.7823   -1.0348   58.4039 H       1  ZINC001083519372    0.1200
     11 N11        -8.7073    0.4014   59.6456 N.am    1  ZINC001083519372   -0.6900
     12 C12        -8.9480   -0.4272   60.6809 C.2     1  ZINC001083519372    0.5600
     13 O13        -8.9182   -1.6314   60.5154 O.2     1  ZINC001083519372   -0.5100
     14 C14        -9.2475    0.1267   62.0148 C.2     1  ZINC001083519372    0.1400
     15 C15        -8.3420    0.0151   63.0353 C.2     1  ZINC001083519372   -0.1500
     16 C16        -8.6560    0.5515   64.2912 C.2     1  ZINC001083519372    0.1800
     17 N17        -9.8039    1.1541   64.4887 N.2     1  ZINC001083519372   -0.4400
     18 C18       -10.7015    1.2732   63.5050 C.2     1  ZINC001083519372    0.2500
     19 C19       -11.9652    1.8513   63.4498 C.2     1  ZINC001083519372   -0.2500
     20 C20       -12.4493    1.6814   62.1633 C.2     1  ZINC001083519372    0.1000
     21 N21       -11.5520    1.0377   61.4488 N.2     1  ZINC001083519372   -0.3100
     22 N22       -10.4403    0.7699   62.2547 N.pl3   1  ZINC001083519372   -0.3100
     23 C23        -9.7151   -0.4736   57.5553 C.3     1  ZINC001083519372    0.0900
     24 H24        -9.9275   -1.5415   57.6062 H       1  ZINC001083519372    0.0800
     25 O25       -10.8065    0.2746   58.0948 O.3     1  ZINC001083519372   -0.5600
     26 C26        -9.4428   -0.0516   56.0996 C.3     1  ZINC001083519372    0.0100
     27 N27        -8.2865   -0.0918   53.1659 N.2     1  ZINC001083519372   -0.4800
     28 C28        -7.8125   -0.2840   51.9680 C.2     1  ZINC001083519372    0.1700
     29 O29        -6.8961    0.6588   51.7109 O.3     1  ZINC001083519372   -0.2000
     30 H30        -4.1117    1.5338   52.4789 H       1  ZINC001083519372    0.0600
     31 H31        -4.8905    2.3218   51.0858 H       1  ZINC001083519372    0.0600
     32 H32        -3.9683    3.2941   52.2574 H       1  ZINC001083519372    0.0700
     33 H33        -5.6298    2.7508   54.0160 H       1  ZINC001083519372    0.1000
     34 H34        -6.8812    3.7910   51.4336 H       1  ZINC001083519372    0.0600
     35 H35        -7.5206    4.0496   53.0745 H       1  ZINC001083519372    0.0600
     36 H36        -5.9590    4.7633   52.6052 H       1  ZINC001083519372    0.0700
     37 H37        -7.0942    2.1913   55.3614 H       1  ZINC001083519372    0.0900
     38 H38        -8.8484    2.1312   55.0656 H       1  ZINC001083519372    0.0600
     39 H39        -6.6614    0.9360   57.5848 H       1  ZINC001083519372    0.1000
     40 H40        -8.1722    1.9025   57.6021 H       1  ZINC001083519372    0.0600
     41 H41        -8.7299    1.3622   59.7779 H       1  ZINC001083519372    0.4300
     42 H42        -7.3964   -0.4811   62.8744 H       1  ZINC001083519372    0.1800
     43 H43        -7.9478    0.4679   65.1023 H       1  ZINC001083519372    0.1900
     44 H44       -12.4769    2.3438   64.2635 H       1  ZINC001083519372    0.1700
     45 H45       -13.4092    2.0225   61.8046 H       1  ZINC001083519372    0.2000
     46 H46       -11.6769   -0.0810   57.8689 H       1  ZINC001083519372    0.3900
     47 H47       -10.1352    0.7374   55.8060 H       1  ZINC001083519372    0.0700
     48 H48        -9.5519   -0.9104   55.4374 H       1  ZINC001083519372    0.0900
     49 H49        -8.1120   -1.0711   51.2919 H       1  ZINC001083519372    0.2500
@<TRIPOS>BOND
     1     1     2    1
     2     1    30    1
     3     1    31    1
     4     1    32    1
     5     2     3    1
     6     2     4    1
     7     2    33    1
     8     3    34    1
     9     3    35    1
    10     3    36    1
    11     4    29    1
    12     4     5    2
    13     5     6    1
    14     5    27    1
    15     6     7    1
    16     6    37    1
    17     6    38    1
    18     7    26    1
    19     7     8    1
    20     8     9    1
    21     8    39    1
    22     8    40    1
    23     9    10    1
    24     9    11    1
    25     9    23    1
    26    11    12   am
    27    11    41    1
    28    12    13    2
    29    12    14    1
    30    14    22    1
    31    14    15    2
    32    15    16    1
    33    15    42    1
    34    16    17    2
    35    16    43    1
    36    17    18    1
    37    18    22    1
    38    18    19    2
    39    19    20    1
    40    19    44    1
    41    20    21    2
    42    20    45    1
    43    21    22    1
    44    23    24    1
    45    23    25    1
    46    23    26    1
    47    25    46    1
    48    26    47    1
    49    26    48    1
    50    27    28    2
    51    28    29    1
    52    28    49    1
@<TRIPOS>SUBSTRUCTURE
     1 ZINC001083519372        1 TEMP              0 ****  ****    0 ROOT


##########                                Name:    ZINC001461256440
##########                DOCK_Rotatable_Bonds:                  13
##########                         Heavy_Atoms:                  26
##########                    Molecular_Weight:             367.445
##########                DOCK_Rotatable_Bonds:                  13
##########                       Formal_Charge:        -6.37025e-07
##########                     HBond_Acceptors:                   8
##########                        HBond_Donors:                   1
##########                         Heavy_Atoms:                  26
##########                          Grid_Score:          -32.819893
##########                     Grid_vdw_energy:          -30.735807
##########                      Grid_es_energy:           -2.084084
##########           Internal_energy_repulsive:           40.065243

@<TRIPOS>MOLECULE
ZINC001461256440
 55 55 1 0 0
SMALL
USER_CHARGES


@<TRIPOS>ATOM
      1 C1         -9.2212   -0.8597   52.8828 C.3     1  ZINC001461256440   -0.1500
      2 C2        -10.1737   -0.6914   54.0684 C.3     1  ZINC001461256440    0.0600
      3 O3         -9.9388   -1.7517   55.0322 O.3     1  ZINC001461256440   -0.3600
      4 C4        -10.7448   -1.7897   56.1049 C.2     1  ZINC001461256440    0.4400
      5 O5        -11.6028   -0.9507   56.2459 O.2     1  ZINC001461256440   -0.4800
      6 C6        -10.5795   -2.8787   57.1334 C.3     1  ZINC001461256440    0.1400
      7 N7        -11.7426   -2.8898   58.0240 N.pl3   1  ZINC001461256440   -0.3800
      8 N8        -13.0482   -3.2531   57.6702 N.2     1  ZINC001461256440   -0.2800
      9 C9        -13.8096   -3.1377   58.7282 C.2     1  ZINC001461256440    0.1000
     10 C10       -15.2866   -3.4304   58.7885 C.3     1  ZINC001461256440   -0.0700
     11 C11       -13.0185   -2.6976   59.7929 C.2     1  ZINC001461256440   -0.2700
     12 C12       -11.7445   -2.5567   59.3350 C.2     1  ZINC001461256440    0.3100
     13 N13       -10.6427   -2.1368   60.0802 N.am    1  ZINC001461256440   -0.6500
     14 C14       -10.5557   -0.8564   60.4915 C.2     1  ZINC001461256440    0.5200
     15 O15       -11.4362   -0.0693   60.2148 O.2     1  ZINC001461256440   -0.5000
     16 C16        -9.3644   -0.4024   61.2950 C.3     1  ZINC001461256440   -0.1300
     17 C17        -8.9211    0.9803   60.8130 C.3     1  ZINC001461256440   -0.1100
     18 C18        -8.3963    0.8767   59.3796 C.3     1  ZINC001461256440   -0.1100
     19 C19        -7.9522    2.2594   58.8978 C.3     1  ZINC001461256440   -0.1200
     20 C20        -7.4190    2.1543   57.4923 C.2     1  ZINC001461256440    0.4600
     21 O21        -6.8521    1.1490   57.1348 O.2     1  ZINC001461256440   -0.5000
     22 O22        -7.5739    3.1775   56.6374 O.3     1  ZINC001461256440   -0.3500
     23 C23        -7.0352    3.0065   55.2999 C.3     1  ZINC001461256440    0.1200
     24 C24        -7.3068    4.2666   54.4757 C.3     1  ZINC001461256440   -0.1800
     25 C25        -5.5264    2.7677   55.3844 C.3     1  ZINC001461256440   -0.1400
     26 C26        -7.7050    1.8049   54.6302 C.3     1  ZINC001461256440   -0.1800
     27 H27        -9.3975   -0.0638   52.1593 H       1  ZINC001461256440    0.0800
     28 H28        -8.1908   -0.8093   53.2346 H       1  ZINC001461256440    0.0700
     29 H29        -9.3968   -1.8260   52.4100 H       1  ZINC001461256440    0.0700
     30 H30        -9.9981    0.2749   54.5412 H       1  ZINC001461256440    0.0700
     31 H31       -11.2041   -0.7420   53.7165 H       1  ZINC001461256440    0.0700
     32 H32       -10.4968   -3.8428   56.6316 H       1  ZINC001461256440    0.1300
     33 H33        -9.6773   -2.6940   57.7164 H       1  ZINC001461256440    0.1400
     34 H34       -15.4392   -4.4762   59.0553 H       1  ZINC001461256440    0.0800
     35 H35       -15.7531   -2.7922   59.5389 H       1  ZINC001461256440    0.0800
     36 H36       -15.7359   -3.2346   57.8148 H       1  ZINC001461256440    0.0700
     37 H37       -13.3571   -2.5067   60.8006 H       1  ZINC001461256440    0.1800
     38 H38        -9.9392   -2.7666   60.3024 H       1  ZINC001461256440    0.4100
     39 H39        -9.6360   -0.3498   62.3494 H       1  ZINC001461256440    0.1000
     40 H40        -8.5470   -1.1117   61.1654 H       1  ZINC001461256440    0.1000
     41 H41        -9.7695    1.6640   60.8408 H       1  ZINC001461256440    0.0800
     42 H42        -8.1307    1.3555   61.4631 H       1  ZINC001461256440    0.0800
     43 H43        -7.5481    0.1927   59.3518 H       1  ZINC001461256440    0.0700
     44 H44        -9.1867    0.5020   58.7294 H       1  ZINC001461256440    0.0700
     45 H45        -8.8033    2.9403   58.9136 H       1  ZINC001461256440    0.1100
     46 H46        -7.1706    2.6396   59.5555 H       1  ZINC001461256440    0.1100
     47 H47        -6.8296    5.1226   54.9529 H       1  ZINC001461256440    0.0600
     48 H48        -6.9024    4.1382   53.4717 H       1  ZINC001461256440    0.0700
     49 H49        -8.3817    4.4368   54.4155 H       1  ZINC001461256440    0.0800
     50 H50        -5.3330    1.8699   55.9716 H       1  ZINC001461256440    0.0700
     51 H51        -5.1221    2.6393   54.3804 H       1  ZINC001461256440    0.0800
     52 H52        -5.0492    3.6238   55.8616 H       1  ZINC001461256440    0.0700
     53 H53        -8.7800    1.9751   54.5699 H       1  ZINC001461256440    0.0800
     54 H54        -7.3007    1.6766   53.6262 H       1  ZINC001461256440    0.0700
     55 H55        -7.5116    0.9072   55.2173 H       1  ZINC001461256440    0.0600
@<TRIPOS>BOND
     1     1     2    1
     2     1    27    1
     3     1    28    1
     4     1    29    1
     5     2     3    1
     6     2    30    1
     7     2    31    1
     8     3     4    1
     9     4     5    2
    10     4     6    1
    11     6     7    1
    12     6    32    1
    13     6    33    1
    14     7    12    1
    15     7     8    1
    16     8     9    2
    17     9    10    1
    18     9    11    1
    19    10    34    1
    20    10    35    1
    21    10    36    1
    22    11    12    2
    23    11    37    1
    24    12    13    1
    25    13    14   am
    26    13    38    1
    27    14    15    2
    28    14    16    1
    29    16    17    1
    30    16    39    1
    31    16    40    1
    32    17    18    1
    33    17    41    1
    34    17    42    1
    35    18    19    1
    36    18    43    1
    37    18    44    1
    38    19    20    1
    39    19    45    1
    40    19    46    1
    41    20    21    2
    42    20    22    1
    43    22    23    1
    44    23    24    1
    45    23    25    1
    46    23    26    1
    47    24    47    1
    48    24    48    1
    49    24    49    1
    50    25    50    1
    51    25    51    1
    52    25    52    1
    53    26    53    1
    54    26    54    1
    55    26    55    1
@<TRIPOS>SUBSTRUCTURE
     1 ZINC001461256440        1 TEMP              0 ****  ****    0 ROOT


##########                                Name:    ZINC000770850676
##########                DOCK_Rotatable_Bonds:                  13
##########                         Heavy_Atoms:                  30
##########                    Molecular_Weight:             412.486
##########                DOCK_Rotatable_Bonds:                  13
##########                       Formal_Charge:          -0.0299994
##########                     HBond_Acceptors:                   7
##########                        HBond_Donors:                   3
##########                         Heavy_Atoms:                  30
##########                          Grid_Score:          -32.799656
##########                     Grid_vdw_energy:          -32.189529
##########                      Grid_es_energy:           -0.610127
##########           Internal_energy_repulsive:           47.827980

@<TRIPOS>MOLECULE
ZINC000770850676
 58 60 1 0 0
SMALL
USER_CHARGES


@<TRIPOS>ATOM
      1 O1         -9.9165   -3.0615   56.9487 O.2     1  ZINC000770850676   -0.5300
      2 C2        -10.8864   -2.4098   57.2736 C.2     1  ZINC000770850676    0.5100
      3 N3        -11.0308   -1.1471   56.8252 N.am    1  ZINC000770850676   -0.7000
      4 C4        -10.0132   -0.5596   55.9502 C.3     1  ZINC000770850676    0.1600
      5 H5         -9.0458   -1.0154   56.1610 H       1  ZINC000770850676    0.1000
      6 C6         -9.9325    0.9474   56.2019 C.3     1  ZINC000770850676    0.0600
      7 O7         -8.5621    1.3470   56.2656 O.3     1  ZINC000770850676   -0.5700
      8 C8        -10.3889   -0.8133   54.4889 C.3     1  ZINC000770850676   -0.1500
      9 C9         -9.2711   -0.3008   53.5786 C.3     1  ZINC000770850676    0.1500
     10 H10        -8.3610   -0.1639   54.1625 H       1  ZINC000770850676    0.1100
     11 O11        -9.0312   -1.2503   52.5380 O.3     1  ZINC000770850676   -0.5400
     12 C12        -9.6815    1.0163   52.9719 C.ar    1  ZINC000770850676   -0.1200
     13 C13       -11.0180    1.2850   52.7423 C.ar    1  ZINC000770850676   -0.1100
     14 C14       -11.3945    2.4930   52.1859 C.ar    1  ZINC000770850676   -0.1200
     15 C15       -10.4346    3.4327   51.8593 C.ar    1  ZINC000770850676   -0.1200
     16 C16        -9.0982    3.1644   52.0897 C.ar    1  ZINC000770850676   -0.1200
     17 C17        -8.7221    1.9580   52.6502 C.ar    1  ZINC000770850676   -0.1100
     18 C18       -11.9332   -3.0141   58.1737 C.3     1  ZINC000770850676    0.1400
     19 H19       -11.4641   -3.7001   58.8791 H       1  ZINC000770850676    0.1000
     20 C20       -12.9816   -3.7668   57.3277 C.3     1  ZINC000770850676   -0.1200
     21 C21       -14.3124   -3.4472   58.0586 C.3     1  ZINC000770850676   -0.1300
     22 C22       -14.0671   -1.9917   58.5289 C.3     1  ZINC000770850676    0.1000
     23 N23       -12.6387   -1.9509   58.9041 N.am    1  ZINC000770850676   -0.5900
     24 C24       -12.0783   -1.0827   59.7694 C.2     1  ZINC000770850676    0.6700
     25 O25       -12.7641   -0.2417   60.3160 O.2     1  ZINC000770850676   -0.5600
     26 O26       -10.7586   -1.1475   60.0283 O.3     1  ZINC000770850676   -0.3600
     27 C27       -10.0603    0.1123   60.2116 C.3     1  ZINC000770850676    0.1300
     28 C28        -9.6404    0.2488   61.6524 C.ar    1  ZINC000770850676   -0.1000
     29 C29        -8.6025   -0.5195   62.1457 C.ar    1  ZINC000770850676   -0.0900
     30 C30        -8.2174   -0.3942   63.4674 C.ar    1  ZINC000770850676   -0.1200
     31 C31        -8.8699    0.4996   64.2957 C.ar    1  ZINC000770850676   -0.1100
     32 C32        -9.9073    1.2685   63.8022 C.ar    1  ZINC000770850676   -0.1200
     33 C33       -10.2895    1.1464   62.4794 C.ar    1  ZINC000770850676   -0.0900
     34 H34       -11.8084   -0.6271   57.0819 H       1  ZINC000770850676    0.4000
     35 H35       -10.4286    1.4785   55.3895 H       1  ZINC000770850676    0.0500
     36 H36       -10.4246    1.1851   57.1451 H       1  ZINC000770850676    0.0500
     37 H37        -8.0758    0.9674   57.0103 H       1  ZINC000770850676    0.3800
     38 H38       -10.5257   -1.8828   54.3294 H       1  ZINC000770850676    0.0800
     39 H39       -11.3161   -0.2897   54.2560 H       1  ZINC000770850676    0.0900
     40 H40        -8.3202   -0.9992   51.9326 H       1  ZINC000770850676    0.3700
     41 H41       -11.7679    0.5508   52.9975 H       1  ZINC000770850676    0.1200
     42 H42       -12.4386    2.7026   52.0058 H       1  ZINC000770850676    0.1200
     43 H43       -10.7286    4.3762   51.4239 H       1  ZINC000770850676    0.1200
     44 H44        -8.3483    3.8983   51.8343 H       1  ZINC000770850676    0.1200
     45 H45        -7.6780    1.7484   52.8302 H       1  ZINC000770850676    0.1200
     46 H46       -13.0005   -3.3842   56.3072 H       1  ZINC000770850676    0.0800
     47 H47       -12.7854   -4.8391   57.3351 H       1  ZINC000770850676    0.1000
     48 H48       -15.1574   -3.4988   57.3720 H       1  ZINC000770850676    0.0900
     49 H49       -14.4607   -4.1128   58.9090 H       1  ZINC000770850676    0.0800
     50 H50       -14.2676   -1.2920   57.7175 H       1  ZINC000770850676    0.0700
     51 H51       -14.6914   -1.7617   59.3923 H       1  ZINC000770850676    0.0900
     52 H52        -9.1777    0.1348   59.5722 H       1  ZINC000770850676    0.0800
     53 H53       -10.7222    0.9366   59.9463 H       1  ZINC000770850676    0.0800
     54 H54        -8.0926   -1.2178   61.4985 H       1  ZINC000770850676    0.1200
     55 H55        -7.4069   -0.9950   63.8529 H       1  ZINC000770850676    0.1300
     56 H56        -8.5695    0.5969   65.3286 H       1  ZINC000770850676    0.1300
     57 H57       -10.4173    1.9665   64.4495 H       1  ZINC000770850676    0.1300
     58 H58       -11.1000    1.7471   62.0939 H       1  ZINC000770850676    0.1200
@<TRIPOS>BOND
     1     1     2    2
     2     2     3   am
     3     2    18    1
     4     3     4    1
     5     3    34    1
     6     4     5    1
     7     4     6    1
     8     4     8    1
     9     6     7    1
    10     6    35    1
    11     6    36    1
    12     7    37    1
    13     8     9    1
    14     8    38    1
    15     8    39    1
    16     9    10    1
    17     9    11    1
    18     9    12    1
    19    11    40    1
    20    12    17   ar
    21    12    13   ar
    22    13    14   ar
    23    13    41    1
    24    14    15   ar
    25    14    42    1
    26    15    16   ar
    27    15    43    1
    28    16    17   ar
    29    16    44    1
    30    17    45    1
    31    18    19    1
    32    18    23    1
    33    18    20    1
    34    20    21    1
    35    20    46    1
    36    20    47    1
    37    21    22    1
    38    21    48    1
    39    21    49    1
    40    22    23    1
    41    22    50    1
    42    22    51    1
    43    23    24   am
    44    24    25    2
    45    24    26    1
    46    26    27    1
    47    27    28    1
    48    27    52    1
    49    27    53    1
    50    28    33   ar
    51    28    29   ar
    52    29    30   ar
    53    29    54    1
    54    30    31   ar
    55    30    55    1
    56    31    32   ar
    57    31    56    1
    58    32    33   ar
    59    32    57    1
    60    33    58    1
@<TRIPOS>SUBSTRUCTURE
     1 ZINC000770850676        1 TEMP              0 ****  ****    0 ROOT


##########                                Name:    ZINC000375302598
##########                DOCK_Rotatable_Bonds:                   8
##########                         Heavy_Atoms:                  27
##########                    Molecular_Weight:             368.479
##########                DOCK_Rotatable_Bonds:                   8
##########                       Formal_Charge:               -0.02
##########                     HBond_Acceptors:                   6
##########                        HBond_Donors:                   1
##########                         Heavy_Atoms:                  27
##########                          Grid_Score:          -32.780418
##########                     Grid_vdw_energy:          -32.545624
##########                      Grid_es_energy:           -0.234795
##########           Internal_energy_repulsive:            9.210645

@<TRIPOS>MOLECULE
ZINC000375302598
 55 58 1 0 0
SMALL
USER_CHARGES


@<TRIPOS>ATOM
      1 C1         -5.5623    2.2016   52.3155 C.3     1  ZINC000375302598   -0.1500
      2 C2         -6.9086    2.1502   51.5902 C.3     1  ZINC000375302598   -0.0300
      3 C3         -7.6397    0.8905   51.9768 C.2     1  ZINC000375302598    0.1800
      4 N4         -8.6625    0.8002   52.7924 N.2     1  ZINC000375302598   -0.4700
      5 C5         -8.9782   -0.5066   52.8339 C.2     1  ZINC000375302598    0.1800
      6 C6        -10.0919   -1.1301   53.6352 C.3     1  ZINC000375302598    0.1500
      7 N7        -10.5091   -0.2043   54.6967 N.3     1  ZINC000375302598   -0.5300
      8 C8        -11.8765    0.2788   54.4662 C.3     1  ZINC000375302598    0.0500
      9 C9        -12.2233    1.3472   55.5055 C.3     1  ZINC000375302598   -0.1100
     10 C10       -12.1044    0.7453   56.9084 C.3     1  ZINC000375302598   -0.1300
     11 C11       -10.6848    0.2062   57.1052 C.3     1  ZINC000375302598    0.1500
     12 H12        -9.9708    1.0268   57.0345 H       1  ZINC000375302598    0.1000
     13 N13       -10.5787   -0.4220   58.4244 N.am    1  ZINC000375302598   -0.7300
     14 C14        -9.3711   -0.5745   59.0031 C.2     1  ZINC000375302598    0.5200
     15 O15        -8.3720   -0.1931   58.4310 O.2     1  ZINC000375302598   -0.5300
     16 C16        -9.2622   -1.2191   60.3609 C.3     1  ZINC000375302598   -0.1100
     17 C17        -9.5265   -0.1724   61.4450 C.3     1  ZINC000375302598   -0.1200
     18 H18       -10.5568   -0.1076   61.7948 H       1  ZINC000375302598    0.1200
     19 C19        -8.7173    1.1248   61.3867 C.3     1  ZINC000375302598   -0.1700
     20 C20        -8.4164    0.0825   62.4666 C.3     1  ZINC000375302598   -0.1100
     21 H21        -7.4975   -0.4953   62.3662 H       1  ZINC000375302598    0.1100
     22 C22        -8.8304    0.4045   63.8793 C.ar    1  ZINC000375302598   -0.0500
     23 C23        -9.9056    1.2422   64.1105 C.ar    1  ZINC000375302598   -0.1200
     24 C24       -10.2854    1.5376   65.4064 C.ar    1  ZINC000375302598   -0.1200
     25 C25        -9.5906    0.9950   66.4711 C.ar    1  ZINC000375302598   -0.1300
     26 C26        -8.5160    0.1567   66.2399 C.ar    1  ZINC000375302598   -0.1200
     27 C27        -8.1388   -0.1422   64.9439 C.ar    1  ZINC000375302598   -0.1100
     28 C28       -10.3825   -0.8291   56.0196 C.3     1  ZINC000375302598    0.0500
     29 N29        -8.1467   -1.1326   52.0559 N.2     1  ZINC000375302598   -0.3800
     30 O30        -7.3733   -0.3474   51.5494 O.3     1  ZINC000375302598    0.0800
     31 H31        -4.9650    1.3341   52.0347 H       1  ZINC000375302598    0.0600
     32 H32        -5.0336    3.1128   52.0360 H       1  ZINC000375302598    0.0800
     33 H33        -5.7294    2.1944   53.3926 H       1  ZINC000375302598    0.0600
     34 H34        -7.5059    3.0177   51.8711 H       1  ZINC000375302598    0.1100
     35 H35        -6.7415    2.1574   50.5131 H       1  ZINC000375302598    0.1000
     36 H36       -10.9384   -1.3376   52.9806 H       1  ZINC000375302598    0.0700
     37 H37        -9.7413   -2.0606   54.0817 H       1  ZINC000375302598    0.1100
     38 H38       -11.9463    0.7081   53.4667 H       1  ZINC000375302598    0.0800
     39 H39       -12.5751   -0.5532   54.5536 H       1  ZINC000375302598    0.0400
     40 H40       -11.5336    2.1857   55.4095 H       1  ZINC000375302598    0.0700
     41 H41       -13.2439    1.6945   55.3438 H       1  ZINC000375302598    0.0700
     42 H42       -12.3084    1.5146   57.6533 H       1  ZINC000375302598    0.0700
     43 H43       -12.8214   -0.0682   57.0177 H       1  ZINC000375302598    0.0600
     44 H44       -11.3776   -0.7281   58.8815 H       1  ZINC000375302598    0.4000
     45 H45        -9.9967   -2.0203   60.4426 H       1  ZINC000375302598    0.1000
     46 H46        -8.2607   -1.6299   60.4889 H       1  ZINC000375302598    0.1000
     47 H47        -7.9968    1.2326   60.5761 H       1  ZINC000375302598    0.1000
     48 H48        -9.2152    2.0430   61.6986 H       1  ZINC000375302598    0.1000
     49 H49       -10.4485    1.6661   63.2786 H       1  ZINC000375302598    0.1200
     50 H50       -11.1249    2.1926   65.5870 H       1  ZINC000375302598    0.1200
     51 H51        -9.8869    1.2264   67.4835 H       1  ZINC000375302598    0.1200
     52 H52        -7.9729   -0.2670   67.0716 H       1  ZINC000375302598    0.1200
     53 H53        -7.2993   -0.7971   64.7634 H       1  ZINC000375302598    0.1200
     54 H54       -11.0882   -1.6560   56.0997 H       1  ZINC000375302598    0.0400
     55 H55        -9.3673   -1.2046   56.1483 H       1  ZINC000375302598    0.0900
@<TRIPOS>BOND
     1     1     2    1
     2     1    31    1
     3     1    32    1
     4     1    33    1
     5     2     3    1
     6     2    34    1
     7     2    35    1
     8     3    30    1
     9     3     4    2
    10     4     5    1
    11     5     6    1
    12     5    29    2
    13     6     7    1
    14     6    36    1
    15     6    37    1
    16     7    28    1
    17     7     8    1
    18     8     9    1
    19     8    38    1
    20     8    39    1
    21     9    10    1
    22     9    40    1
    23     9    41    1
    24    10    11    1
    25    10    42    1
    26    10    43    1
    27    11    12    1
    28    11    13    1
    29    11    28    1
    30    13    14   am
    31    13    44    1
    32    14    15    2
    33    14    16    1
    34    16    17    1
    35    16    45    1
    36    16    46    1
    37    17    18    1
    38    17    20    1
    39    17    19    1
    40    19    20    1
    41    19    47    1
    42    19    48    1
    43    20    21    1
    44    20    22    1
    45    22    27   ar
    46    22    23   ar
    47    23    24   ar
    48    23    49    1
    49    24    25   ar
    50    24    50    1
    51    25    26   ar
    52    25    51    1
    53    26    27   ar
    54    26    52    1
    55    27    53    1
    56    28    54    1
    57    28    55    1
    58    29    30    1
@<TRIPOS>SUBSTRUCTURE
     1 ZINC000375302598        1 TEMP              0 ****  ****    0 ROOT


##########                                Name:    ZINC000498646479
##########                DOCK_Rotatable_Bonds:                   7
##########                         Heavy_Atoms:                  29
##########                    Molecular_Weight:              407.58
##########                DOCK_Rotatable_Bonds:                   7
##########                       Formal_Charge:          -0.0199997
##########                     HBond_Acceptors:                   5
##########                        HBond_Donors:                   0
##########                         Heavy_Atoms:                  29
##########                          Grid_Score:          -32.779301
##########                     Grid_vdw_energy:          -33.006226
##########                      Grid_es_energy:            0.226925
##########           Internal_energy_repulsive:           27.751188

@<TRIPOS>MOLECULE
ZINC000498646479
 58 61 1 0 0
SMALL
USER_CHARGES


@<TRIPOS>ATOM
      1 C1        -13.8185   -3.4137   57.5570 C.3     1  ZINC000498646479   -0.1500
      2 C2        -12.4040   -3.7913   57.1128 C.3     1  ZINC000498646479   -0.0600
      3 C3        -11.3985   -3.0275   57.9353 C.2     1  ZINC000498646479   -0.1700
      4 C4        -10.1805   -3.4637   58.2602 C.2     1  ZINC000498646479   -0.1400
      5 C5         -9.4313   -2.5859   59.0247 C.2     1  ZINC000498646479   -0.1300
      6 C6        -10.0409   -1.4369   59.3205 C.2     1  ZINC000498646479   -0.1900
      7 C7         -9.4413   -0.3201   60.1354 C.3     1  ZINC000498646479    0.1300
      8 N8         -8.8406    0.6743   59.2363 N.3     1  ZINC000498646479   -0.5300
      9 C9         -9.8453    1.6415   58.7747 C.3     1  ZINC000498646479    0.0400
     10 C10        -9.1505    2.7602   57.9912 C.3     1  ZINC000498646479    0.1200
     11 N11        -8.3390    2.1505   56.9267 N.am    1  ZINC000498646479   -0.6100
     12 C12        -8.4480    2.5667   55.6494 C.2     1  ZINC000498646479    0.5200
     13 O13        -9.2231    3.4552   55.3652 O.2     1  ZINC000498646479   -0.5400
     14 C14        -7.6069    1.9280   54.5745 C.3     1  ZINC000498646479   -0.1000
     15 H15        -6.6331    1.6615   54.9853 H       1  ZINC000498646479    0.0900
     16 C16        -8.3062    0.6677   54.0611 C.3     1  ZINC000498646479   -0.1500
     17 C17        -7.4205    2.9141   53.4195 C.3     1  ZINC000498646479   -0.0600
     18 C18        -6.0724    2.6932   52.7831 C.ar    1  ZINC000498646479   -0.1200
     19 C19        -4.8979    3.1343   53.4190 C.ar    1  ZINC000498646479   -0.0200
     20 C20        -4.9197    3.7913   54.6577 C.ar    1  ZINC000498646479   -0.1200
     21 C21        -3.7480    4.1945   55.2234 C.ar    1  ZINC000498646479   -0.1000
     22 C22        -2.5279    3.9647   54.5899 C.ar    1  ZINC000498646479   -0.1200
     23 C23        -2.4690    3.3298   53.3866 C.ar    1  ZINC000498646479   -0.0900
     24 C24        -3.6560    2.8992   52.7730 C.ar    1  ZINC000498646479   -0.1100
     25 C25        -3.6579    2.2393   51.5338 C.ar    1  ZINC000498646479    0.1400
     26 N26        -4.7935    1.8549   50.9994 N.ar    1  ZINC000498646479   -0.4800
     27 C27        -5.9664    2.0571   51.5833 C.ar    1  ZINC000498646479    0.0800
     28 C28        -7.4052    1.0749   57.2931 C.3     1  ZINC000498646479    0.1100
     29 C29        -8.1688    0.0226   58.1042 C.3     1  ZINC000498646479    0.0400
     30 S30       -11.6486   -1.4214   58.6072 S.3     1  ZINC000498646479    0.1300
     31 H31       -14.5459   -3.9661   56.9622 H       1  ZINC000498646479    0.0600
     32 H32       -13.9470   -3.6622   58.6106 H       1  ZINC000498646479    0.0600
     33 H33       -13.9706   -2.3437   57.4150 H       1  ZINC000498646479    0.0600
     34 H34       -12.2520   -4.8613   57.2549 H       1  ZINC000498646479    0.0800
     35 H35       -12.2756   -3.5428   56.0593 H       1  ZINC000498646479    0.0700
     36 H36        -9.8073   -4.4286   57.9507 H       1  ZINC000498646479    0.1400
     37 H37        -8.4293   -2.8142   59.3567 H       1  ZINC000498646479    0.1300
     38 H38       -10.2210    0.1536   60.7320 H       1  ZINC000498646479    0.0900
     39 H39        -8.6735   -0.7237   60.7955 H       1  ZINC000498646479    0.0500
     40 H40       -10.5651    1.1382   58.1292 H       1  ZINC000498646479    0.0400
     41 H41       -10.3626    2.0670   59.6347 H       1  ZINC000498646479    0.1000
     42 H42        -9.8994    3.4177   57.5497 H       1  ZINC000498646479    0.1000
     43 H43        -8.5070    3.3310   58.6606 H       1  ZINC000498646479    0.0800
     44 H44        -7.6603    0.1601   53.3445 H       1  ZINC000498646479    0.0700
     45 H45        -8.5144    0.0013   54.8982 H       1  ZINC000498646479    0.0600
     46 H46        -9.2418    0.9437   53.5750 H       1  ZINC000498646479    0.0700
     47 H47        -8.2029    2.7564   52.6772 H       1  ZINC000498646479    0.0900
     48 H48        -7.4801    3.9340   53.7994 H       1  ZINC000498646479    0.0800
     49 H49        -5.8581    3.9764   55.1593 H       1  ZINC000498646479    0.1400
     50 H50        -3.7645    4.7004   56.1774 H       1  ZINC000498646479    0.1300
     51 H51        -1.6143    4.2958   55.0608 H       1  ZINC000498646479    0.1300
     52 H52        -1.5162    3.1589   52.9079 H       1  ZINC000498646479    0.1300
     53 H53        -2.7267    2.0487   51.0211 H       1  ZINC000498646479    0.1600
     54 H54        -6.8641    1.7154   51.0896 H       1  ZINC000498646479    0.1500
     55 H55        -7.0002    0.6182   56.3900 H       1  ZINC000498646479    0.0900
     56 H56        -6.5940    1.4837   57.8954 H       1  ZINC000498646479    0.0800
     57 H57        -7.4702   -0.7260   58.4778 H       1  ZINC000498646479    0.0900
     58 H58        -8.9119   -0.4581   57.4680 H       1  ZINC000498646479    0.0400
@<TRIPOS>BOND
     1     1     2    1
     2     1    31    1
     3     1    32    1
     4     1    33    1
     5     2     3    1
     6     2    34    1
     7     2    35    1
     8     3    30    1
     9     3     4    2
    10     4     5    1
    11     4    36    1
    12     5     6    2
    13     5    37    1
    14     6     7    1
    15     6    30    1
    16     7     8    1
    17     7    38    1
    18     7    39    1
    19     8    29    1
    20     8     9    1
    21     9    10    1
    22     9    40    1
    23     9    41    1
    24    10    11    1
    25    10    42    1
    26    10    43    1
    27    11    12   am
    28    11    28    1
    29    12    13    2
    30    12    14    1
    31    14    15    1
    32    14    16    1
    33    14    17    1
    34    16    44    1
    35    16    45    1
    36    16    46    1
    37    17    18    1
    38    17    47    1
    39    17    48    1
    40    18    27   ar
    41    18    19   ar
    42    19    24   ar
    43    19    20   ar
    44    20    21   ar
    45    20    49    1
    46    21    22   ar
    47    21    50    1
    48    22    23   ar
    49    22    51    1
    50    23    24   ar
    51    23    52    1
    52    24    25   ar
    53    25    26   ar
    54    25    53    1
    55    26    27   ar
    56    27    54    1
    57    28    29    1
    58    28    55    1
    59    28    56    1
    60    29    57    1
    61    29    58    1
@<TRIPOS>SUBSTRUCTURE
     1 ZINC000498646479        1 TEMP              0 ****  ****    0 ROOT


##########                                Name:    ZINC001124460178
##########                DOCK_Rotatable_Bonds:                  12
##########                         Heavy_Atoms:                  22
##########                    Molecular_Weight:             328.479
##########                DOCK_Rotatable_Bonds:                  12
##########                       Formal_Charge:          -0.0100003
##########                     HBond_Acceptors:                   7
##########                        HBond_Donors:                   2
##########                         Heavy_Atoms:                  22
##########                          Grid_Score:          -32.740795
##########                     Grid_vdw_energy:          -33.177025
##########                      Grid_es_energy:            0.436228
##########           Internal_energy_repulsive:           26.869888

@<TRIPOS>MOLECULE
ZINC001124460178
 50 50 1 0 0
SMALL
USER_CHARGES


@<TRIPOS>ATOM
      1 C1         -8.4245   -0.1274   65.8976 C.3     1  ZINC001124460178   -0.0700
      2 C2         -8.8667    0.1573   64.4853 C.2     1  ZINC001124460178    0.3100
      3 N3         -9.8361    0.9901   64.2403 N.2     1  ZINC001124460178   -0.5000
      4 S4        -10.0066    1.0157   62.5495 S.3     1  ZINC001124460178    0.1800
      5 C5         -8.7395   -0.1171   62.2665 C.2     1  ZINC001124460178    0.3400
      6 N6         -8.2953   -0.5964   61.0475 N.pl3   1  ZINC001124460178   -0.6600
      7 C7         -8.7472    0.0329   59.8042 C.3     1  ZINC001124460178    0.0900
      8 C8         -8.8010   -1.0162   58.6918 C.3     1  ZINC001124460178    0.0800
      9 H9         -8.1626   -0.7030   57.8658 H       1  ZINC001124460178    0.1200
     10 O10        -8.3432   -2.2714   59.1984 O.3     1  ZINC001124460178   -0.5500
     11 C11       -10.2414   -1.1608   58.1965 C.3     1  ZINC001124460178    0.0900
     12 N12       -10.2384   -1.4183   56.7543 N.am    1  ZINC001124460178   -0.6100
     13 C13       -10.3837   -2.7876   56.2543 C.3     1  ZINC001124460178    0.0800
     14 C14       -10.1018   -0.3953   55.8875 C.2     1  ZINC001124460178    0.5100
     15 O15        -9.9800    0.7381   56.3015 O.2     1  ZINC001124460178   -0.5400
     16 C16       -10.1005   -0.6599   54.4039 C.3     1  ZINC001124460178   -0.1400
     17 C17        -9.8430    0.6481   53.6528 C.3     1  ZINC001124460178   -0.1100
     18 C18        -8.3421    0.9451   53.6458 C.3     1  ZINC001124460178   -0.1200
     19 C19        -8.0783    2.2196   52.8414 C.3     1  ZINC001124460178   -0.1200
     20 C20        -6.5806    2.5318   52.8574 C.3     1  ZINC001124460178   -0.1000
     21 C21        -6.1240    2.7673   54.2986 C.3     1  ZINC001124460178   -0.1500
     22 C22        -5.8074    1.3527   52.2637 C.3     1  ZINC001124460178   -0.1500
     23 N23        -8.2827   -0.4229   63.4626 N.2     1  ZINC001124460178   -0.5800
     24 H24        -7.6444    0.5784   66.1832 H       1  ZINC001124460178    0.0900
     25 H25        -9.2740   -0.0227   66.5724 H       1  ZINC001124460178    0.0900
     26 H26        -8.0350   -1.1436   65.9585 H       1  ZINC001124460178    0.0900
     27 H27        -7.6845   -1.3494   61.0159 H       1  ZINC001124460178    0.4200
     28 H28        -9.7403    0.4573   59.9518 H       1  ZINC001124460178    0.0800
     29 H29        -8.0520    0.8243   59.5240 H       1  ZINC001124460178    0.0900
     30 H30        -8.8840   -2.6263   59.9172 H       1  ZINC001124460178    0.3800
     31 H31       -10.7215   -1.9921   58.7129 H       1  ZINC001124460178    0.0900
     32 H32       -10.7898   -0.2412   58.4003 H       1  ZINC001124460178    0.1000
     33 H33       -11.4405   -3.0104   56.1073 H       1  ZINC001124460178    0.0600
     34 H34        -9.8561   -2.8858   55.3054 H       1  ZINC001124460178    0.0800
     35 H35        -9.9625   -3.4853   56.9781 H       1  ZINC001124460178    0.0800
     36 H36        -9.3160   -1.3774   54.1634 H       1  ZINC001124460178    0.0900
     37 H37       -11.0675   -1.0655   54.1062 H       1  ZINC001124460178    0.0900
     38 H38       -10.1996    0.5542   52.6270 H       1  ZINC001124460178    0.0700
     39 H39       -10.3722    1.4619   54.1484 H       1  ZINC001124460178    0.0700
     40 H40        -7.9943    1.0830   54.6696 H       1  ZINC001124460178    0.0600
     41 H41        -7.8088    0.1109   53.1901 H       1  ZINC001124460178    0.0600
     42 H42        -8.4083    2.0748   51.8128 H       1  ZINC001124460178    0.0600
     43 H43        -8.6273    3.0498   53.2858 H       1  ZINC001124460178    0.0600
     44 H44        -6.3897    3.4267   52.2650 H       1  ZINC001124460178    0.0700
     45 H45        -6.3149    1.8724   54.8910 H       1  ZINC001124460178    0.0500
     46 H46        -5.0570    2.9898   54.3100 H       1  ZINC001124460178    0.0500
     47 H47        -6.6748    3.6073   54.7216 H       1  ZINC001124460178    0.0500
     48 H48        -6.1327    1.1850   51.2369 H       1  ZINC001124460178    0.0600
     49 H49        -4.7404    1.5752   52.2749 H       1  ZINC001124460178    0.0500
     50 H50        -5.9982    0.4578   52.8559 H       1  ZINC001124460178    0.0500
@<TRIPOS>BOND
     1     1     2    1
     2     1    24    1
     3     1    25    1
     4     1    26    1
     5     2    23    1
     6     2     3    2
     7     3     4    1
     8     4     5    1
     9     5     6    1
    10     5    23    2
    11     6     7    1
    12     6    27    1
    13     7     8    1
    14     7    28    1
    15     7    29    1
    16     8     9    1
    17     8    10    1
    18     8    11    1
    19    10    30    1
    20    11    12    1
    21    11    31    1
    22    11    32    1
    23    12    13    1
    24    12    14   am
    25    13    33    1
    26    13    34    1
    27    13    35    1
    28    14    15    2
    29    14    16    1
    30    16    17    1
    31    16    36    1
    32    16    37    1
    33    17    18    1
    34    17    38    1
    35    17    39    1
    36    18    19    1
    37    18    40    1
    38    18    41    1
    39    19    20    1
    40    19    42    1
    41    19    43    1
    42    20    21    1
    43    20    22    1
    44    20    44    1
    45    21    45    1
    46    21    46    1
    47    21    47    1
    48    22    48    1
    49    22    49    1
    50    22    50    1
@<TRIPOS>SUBSTRUCTURE
     1 ZINC001124460178        1 TEMP              0 ****  ****    0 ROOT


##########                                Name:    ZINC000504243286
##########                DOCK_Rotatable_Bonds:                   7
##########                         Heavy_Atoms:                  29
##########                    Molecular_Weight:             408.337
##########                DOCK_Rotatable_Bonds:                   7
##########                       Formal_Charge:           0.0299994
##########                     HBond_Acceptors:                  11
##########                        HBond_Donors:                   3
##########                         Heavy_Atoms:                  29
##########                          Grid_Score:          -32.739029
##########                     Grid_vdw_energy:          -30.491306
##########                      Grid_es_energy:           -2.247721
##########           Internal_energy_repulsive:           10.842997

@<TRIPOS>MOLECULE
ZINC000504243286
 44 46 1 0 0
SMALL
USER_CHARGES


@<TRIPOS>ATOM
      1 O1         -8.1113    0.6756   57.7303 O.2     1  ZINC000504243286   -0.5200
      2 C2         -8.9958    1.5045   57.6876 C.2     1  ZINC000504243286    0.5200
      3 C3         -9.7220    1.8972   58.9483 C.3     1  ZINC000504243286   -0.1600
      4 C4         -9.3132    0.9589   60.0856 C.3     1  ZINC000504243286    0.1300
      5 N5         -9.9886    1.3654   61.3205 N.pl3   1  ZINC000504243286   -0.7200
      6 C6         -9.4876    0.9550   62.5580 C.ar    1  ZINC000504243286    0.3100
      7 C7         -8.5007   -0.0203   62.6206 C.ar    1  ZINC000504243286   -0.1900
      8 C8         -8.0071   -0.4235   63.8460 C.ar    1  ZINC000504243286    0.0200
      9 C9         -8.4945    0.1426   65.0096 C.ar    1  ZINC000504243286   -0.2400
     10 C10        -7.9532   -0.2995   66.3447 C.3     1  ZINC000504243286    0.5200
     11 F11        -8.7313   -1.3522   66.8380 F       1  ZINC000504243286   -0.1700
     12 F12        -6.6303   -0.7287   66.1927 F       1  ZINC000504243286   -0.1700
     13 F13        -7.9953    0.7723   67.2430 F       1  ZINC000504243286   -0.1700
     14 C14        -9.4772    1.1140   64.9508 C.ar    1  ZINC000504243286    0.0400
     15 C15        -9.9712    1.5255   63.7288 C.ar    1  ZINC000504243286   -0.1200
     16 N16       -11.0229    2.5650   63.6670 N.pl3   1  ZINC000504243286    0.0400
     17 O17       -11.0068    3.3954   62.7760 O.2     1  ZINC000504243286   -0.1700
     18 O18       -11.9045    2.5903   64.5070 O.2     1  ZINC000504243286   -0.1400
     19 N19        -9.3254    2.0782   56.5134 N.am    1  ZINC000504243286   -0.6700
     20 C20        -8.6505    1.7131   55.3415 C.ar    1  ZINC000504243286    0.1200
     21 C21        -8.9414    0.5084   54.7155 C.ar    1  ZINC000504243286   -0.1000
     22 C22        -8.2790    0.1464   53.5615 C.ar    1  ZINC000504243286   -0.1200
     23 C23        -7.3116    0.9871   53.0148 C.ar    1  ZINC000504243286    0.1300
     24 N24        -6.5173    0.8432   51.8745 N.am    1  ZINC000504243286   -0.6600
     25 C25        -5.6973    1.8915   51.6907 C.2     1  ZINC000504243286    0.5300
     26 O26        -4.9019    2.0339   50.7860 O.2     1  ZINC000504243286   -0.5000
     27 C27        -5.9526    2.8618   52.8242 C.3     1  ZINC000504243286   -0.1200
     28 C28        -7.0272    2.1907   53.6484 C.ar    1  ZINC000504243286   -0.1200
     29 C29        -7.6902    2.5578   54.7966 C.ar    1  ZINC000504243286   -0.0600
     30 H30        -9.4630    2.9225   59.2123 H       1  ZINC000504243286    0.1100
     31 H31       -10.7973    1.8244   58.7859 H       1  ZINC000504243286    0.1100
     32 H32        -9.5991   -0.0624   59.8345 H       1  ZINC000504243286    0.0800
     33 H33        -8.2338    1.0096   60.2282 H       1  ZINC000504243286    0.0900
     34 H34       -10.7836    1.9195   61.2788 H       1  ZINC000504243286    0.4100
     35 H35        -8.1198   -0.4631   61.7122 H       1  ZINC000504243286    0.1600
     36 H36        -7.2400   -1.1821   63.8955 H       1  ZINC000504243286    0.1600
     37 H37        -9.8557    1.5542   65.8616 H       1  ZINC000504243286    0.1600
     38 H38       -10.0300    2.7441   56.4799 H       1  ZINC000504243286    0.4200
     39 H39        -9.6895   -0.1482   55.1344 H       1  ZINC000504243286    0.1400
     40 H40        -8.5105   -0.7922   53.0799 H       1  ZINC000504243286    0.1300
     41 H41        -6.5537    0.0749   51.2836 H       1  ZINC000504243286    0.4100
     42 H42        -5.0488    3.0026   53.4171 H       1  ZINC000504243286    0.1300
     43 H43        -6.3088    3.8163   52.4368 H       1  ZINC000504243286    0.1300
     44 H44        -7.4625    3.4986   55.2757 H       1  ZINC000504243286    0.1500
@<TRIPOS>BOND
     1     1     2    2
     2     2     3    1
     3     2    19   am
     4     3     4    1
     5     3    30    1
     6     3    31    1
     7     4     5    1
     8     4    32    1
     9     4    33    1
    10     5     6    1
    11     5    34    1
    12     6    15   ar
    13     6     7   ar
    14     7     8   ar
    15     7    35    1
    16     8     9   ar
    17     8    36    1
    18     9    10    1
    19     9    14   ar
    20    10    11    1
    21    10    12    1
    22    10    13    1
    23    14    15   ar
    24    14    37    1
    25    15    16    1
    26    16    17    2
    27    16    18    2
    28    19    20    1
    29    19    38    1
    30    20    29   ar
    31    20    21   ar
    32    21    22   ar
    33    21    39    1
    34    22    23   ar
    35    22    40    1
    36    23    28   ar
    37    23    24    1
    38    24    25   am
    39    24    41    1
    40    25    26    2
    41    25    27    1
    42    27    28    1
    43    27    42    1
    44    27    43    1
    45    28    29   ar
    46    29    44    1
@<TRIPOS>SUBSTRUCTURE
     1 ZINC000504243286        1 TEMP              0 ****  ****    0 ROOT


##########                                Name:    ZINC000191003171
##########                DOCK_Rotatable_Bonds:                   6
##########                         Heavy_Atoms:                  26
##########                    Molecular_Weight:             389.414
##########                DOCK_Rotatable_Bonds:                   6
##########                       Formal_Charge:          -0.0200002
##########                     HBond_Acceptors:                   8
##########                        HBond_Donors:                   1
##########                         Heavy_Atoms:                  26
##########                          Grid_Score:          -32.728165
##########                     Grid_vdw_energy:          -32.032318
##########                      Grid_es_energy:           -0.695848
##########           Internal_energy_repulsive:           14.787470

@<TRIPOS>MOLECULE
ZINC000191003171
 45 46 1 0 0
SMALL
USER_CHARGES


@<TRIPOS>ATOM
      1 C1         -6.0586    2.9744   57.5195 C.3     1  ZINC000191003171   -0.1200
      2 C2         -6.6291    2.3324   56.2811 C.ar    1  ZINC000191003171   -0.0800
      3 C3         -6.1152    2.6510   55.0383 C.ar    1  ZINC000191003171   -0.0700
      4 C4         -6.6385    2.0620   53.9021 C.ar    1  ZINC000191003171   -0.1800
      5 C5         -6.0785    2.4097   52.5470 C.3     1  ZINC000191003171    0.5100
      6 F6         -4.7247    2.7396   52.6724 F       1  ZINC000191003171   -0.1800
      7 F7         -6.2135    1.3116   51.6909 F       1  ZINC000191003171   -0.1800
      8 F8         -6.7774    3.5010   52.0195 F       1  ZINC000191003171   -0.1800
      9 C9         -7.6751    1.1541   54.0093 C.ar    1  ZINC000191003171   -0.0800
     10 C10        -8.1889    0.8351   55.2525 C.ar    1  ZINC000191003171   -0.1000
     11 C11        -7.6628    1.4206   56.3887 C.ar    1  ZINC000191003171   -0.0500
     12 C12        -8.2228    1.0729   57.7439 C.3     1  ZINC000191003171    0.0900
     13 N13        -9.0343   -0.1471   57.6400 N.3     1  ZINC000191003171   -0.6800
     14 C14        -9.6185   -0.5031   58.9400 C.3     1  ZINC000191003171    0.1200
     15 H15        -9.8736    0.4058   59.4849 H       1  ZINC000191003171    0.0600
     16 C16        -8.6054   -1.3153   59.7493 C.3     1  ZINC000191003171   -0.1400
     17 C17       -10.8629   -1.3249   58.7234 C.ar    1  ZINC000191003171   -0.0100
     18 C18       -10.8826   -2.3054   57.7493 C.ar    1  ZINC000191003171   -0.1300
     19 C19       -12.0236   -3.0601   57.5495 C.ar    1  ZINC000191003171    0.0100
     20 C20       -13.1459   -2.8350   58.3235 C.ar    1  ZINC000191003171   -0.7000
     21 S21       -14.5999   -3.7972   58.0685 S.o2    1  ZINC000191003171    2.5000
     22 C22       -15.7041   -2.7081   57.1276 C.3     1  ZINC000191003171   -0.6500
     23 O23       -14.1645   -4.8831   57.2620 O.2     1  ZINC000191003171   -0.9300
     24 O24       -15.1101   -4.0148   59.3767 O.2     1  ZINC000191003171   -0.9300
     25 C25       -13.1273   -1.8534   59.3000 C.ar    1  ZINC000191003171    0.1900
     26 F26       -14.2240   -1.6324   60.0575 F       1  ZINC000191003171   -0.1200
     27 C27       -11.9825   -1.1018   59.5028 C.ar    1  ZINC000191003171   -0.1700
     28 H28        -5.2387    2.3651   57.8997 H       1  ZINC000191003171    0.0800
     29 H29        -5.6884    3.9700   57.2750 H       1  ZINC000191003171    0.0800
     30 H30        -6.8361    3.0523   58.2794 H       1  ZINC000191003171    0.0600
     31 H31        -5.3049    3.3602   54.9546 H       1  ZINC000191003171    0.1400
     32 H32        -8.0839    0.6941   53.1219 H       1  ZINC000191003171    0.1400
     33 H33        -8.9990    0.1259   55.3363 H       1  ZINC000191003171    0.1400
     34 H34        -7.4039    0.9062   58.4436 H       1  ZINC000191003171    0.0900
     35 H35        -8.8447    1.8936   58.1014 H       1  ZINC000191003171    0.0500
     36 H36        -9.7511   -0.0460   56.9370 H       1  ZINC000191003171    0.3500
     37 H37        -9.0388   -1.5794   60.7139 H       1  ZINC000191003171    0.0600
     38 H38        -8.3503   -2.2243   59.2044 H       1  ZINC000191003171    0.0700
     39 H39        -7.7053   -0.7209   59.9059 H       1  ZINC000191003171    0.0600
     40 H40       -10.0060   -2.4817   57.1436 H       1  ZINC000191003171    0.1500
     41 H41       -12.0380   -3.8257   56.7878 H       1  ZINC000191003171    0.1600
     42 H42       -15.2279   -2.4331   56.1864 H       1  ZINC000191003171    0.1300
     43 H43       -16.6397   -3.2284   56.9228 H       1  ZINC000191003171    0.1400
     44 H44       -15.9082   -1.8084   57.7080 H       1  ZINC000191003171    0.1300
     45 H45       -11.9667   -0.3363   60.2644 H       1  ZINC000191003171    0.1500
@<TRIPOS>BOND
     1     1     2    1
     2     1    28    1
     3     1    29    1
     4     1    30    1
     5     2    11   ar
     6     2     3   ar
     7     3     4   ar
     8     3    31    1
     9     4     5    1
    10     4     9   ar
    11     5     6    1
    12     5     7    1
    13     5     8    1
    14     9    10   ar
    15     9    32    1
    16    10    11   ar
    17    10    33    1
    18    11    12    1
    19    12    13    1
    20    12    34    1
    21    12    35    1
    22    13    14    1
    23    13    36    1
    24    14    15    1
    25    14    16    1
    26    14    17    1
    27    16    37    1
    28    16    38    1
    29    16    39    1
    30    17    27   ar
    31    17    18   ar
    32    18    19   ar
    33    18    40    1
    34    19    20   ar
    35    19    41    1
    36    20    21    1
    37    20    25   ar
    38    21    22    1
    39    21    23    2
    40    21    24    2
    41    22    42    1
    42    22    43    1
    43    22    44    1
    44    25    26    1
    45    25    27   ar
    46    27    45    1
@<TRIPOS>SUBSTRUCTURE
     1 ZINC000191003171        1 TEMP              0 ****  ****    0 ROOT


##########                                Name:    ZINC000467185792
##########                DOCK_Rotatable_Bonds:                   9
##########                         Heavy_Atoms:                  29
##########                    Molecular_Weight:             412.513
##########                DOCK_Rotatable_Bonds:                   9
##########                       Formal_Charge:                0.04
##########                     HBond_Acceptors:                   8
##########                        HBond_Donors:                   2
##########                         Heavy_Atoms:                  29
##########                          Grid_Score:          -32.709934
##########                     Grid_vdw_energy:          -32.710804
##########                      Grid_es_energy:            0.000869
##########           Internal_energy_repulsive:           25.484892

@<TRIPOS>MOLECULE
ZINC000467185792
 53 55 1 0 0
SMALL
USER_CHARGES


@<TRIPOS>ATOM
      1 C1         -5.5954    0.7225   67.5114 C.3     1  ZINC000467185792   -0.1500
      2 C2         -6.9591    0.1189   67.8536 C.3     1  ZINC000467185792   -0.1200
      3 C3         -7.9458    0.4141   66.7221 C.3     1  ZINC000467185792    0.0600
      4 O4         -7.4620   -0.1602   65.5063 O.3     1  ZINC000467185792   -0.3100
      5 C5         -8.2436   -0.0193   64.4034 C.ar    1  ZINC000467185792    0.1400
      6 C6         -7.8258   -0.5421   63.1872 C.ar    1  ZINC000467185792   -0.2100
      7 C7         -8.6169   -0.4011   62.0661 C.ar    1  ZINC000467185792   -0.0400
      8 C8         -9.8370    0.2671   62.1553 C.ar    1  ZINC000467185792   -0.0600
      9 C9        -10.6905    0.4201   60.9517 C.2     1  ZINC000467185792    0.1400
     10 C10       -12.0256    0.5611   61.0306 C.2     1  ZINC000467185792   -0.3000
     11 S11       -12.6613    0.7127   59.3941 S.3     1  ZINC000467185792    0.2000
     12 C12       -11.0299    0.5682   58.7465 C.2     1  ZINC000467185792    0.2800
     13 N13       -10.6955    0.5997   57.3996 N.am    1  ZINC000467185792   -0.6100
     14 C14        -9.6447   -0.1142   56.9491 C.2     1  ZINC000467185792    0.5900
     15 O15        -8.9897   -0.7860   57.7228 O.2     1  ZINC000467185792   -0.4900
     16 C16        -9.2898   -0.0806   55.5194 C.2     1  ZINC000467185792   -0.2400
     17 C17        -8.5389    0.9641   54.9842 C.2     1  ZINC000467185792    0.0800
     18 C18        -8.0612    2.1000   55.8517 C.3     1  ZINC000467185792   -0.1200
     19 C19        -6.6836    1.7603   56.4242 C.3     1  ZINC000467185792   -0.1400
     20 C20        -8.2410    0.9267   53.6165 C.2     1  ZINC000467185792    0.0600
     21 C21        -7.4308    2.0369   52.9982 C.3     1  ZINC000467185792   -0.0600
     22 C22        -6.6678    1.4974   51.7867 C.3     1  ZINC000467185792   -0.1500
     23 N23        -8.6584   -0.0612   52.8725 N.2     1  ZINC000467185792   -0.1800
     24 N24        -9.3509   -1.0379   53.3325 N.am    1  ZINC000467185792   -0.4300
     25 C25        -9.6955   -1.1172   54.6320 C.2     1  ZINC000467185792    0.5000
     26 O26       -10.3547   -2.0577   55.0406 O.2     1  ZINC000467185792   -0.5300
     27 N27       -10.1890    0.4327   59.7248 N.2     1  ZINC000467185792   -0.5000
     28 C28       -10.2536    0.7910   63.3781 C.ar    1  ZINC000467185792   -0.0600
     29 C29        -9.4604    0.6421   64.4966 C.ar    1  ZINC000467185792   -0.1500
     30 H30        -5.6959    1.8010   67.3890 H       1  ZINC000467185792    0.0600
     31 H31        -4.8925    0.5123   68.3175 H       1  ZINC000467185792    0.0700
     32 H32        -5.2265    0.2845   66.5840 H       1  ZINC000467185792    0.0600
     33 H33        -6.8586   -0.9596   67.9759 H       1  ZINC000467185792    0.0700
     34 H34        -7.3280    0.5570   68.7809 H       1  ZINC000467185792    0.0700
     35 H35        -8.9173   -0.0158   66.9657 H       1  ZINC000467185792    0.0600
     36 H36        -8.0461    1.4926   66.5996 H       1  ZINC000467185792    0.0600
     37 H37        -6.8803   -1.0594   63.1186 H       1  ZINC000467185792    0.1300
     38 H38        -8.2912   -0.8078   61.1200 H       1  ZINC000467185792    0.1300
     39 H39       -12.6080    0.5782   61.9400 H       1  ZINC000467185792    0.1800
     40 H40       -11.2180    1.1356   56.7825 H       1  ZINC000467185792    0.4400
     41 H41        -7.9923    3.0092   55.2543 H       1  ZINC000467185792    0.0900
     42 H42        -8.7661    2.2547   56.6686 H       1  ZINC000467185792    0.1300
     43 H43        -6.7526    0.8511   57.0215 H       1  ZINC000467185792    0.0600
     44 H44        -5.9787    1.6057   55.6072 H       1  ZINC000467185792    0.0600
     45 H45        -6.3382    2.5820   57.0516 H       1  ZINC000467185792    0.0700
     46 H46        -8.0969    2.8391   52.6804 H       1  ZINC000467185792    0.1000
     47 H47        -6.7225    2.4217   53.7318 H       1  ZINC000467185792    0.1000
     48 H48        -6.0819    2.3004   51.3395 H       1  ZINC000467185792    0.0600
     49 H49        -6.0019    0.6952   52.1045 H       1  ZINC000467185792    0.0600
     50 H50        -7.3761    1.1126   51.0531 H       1  ZINC000467185792    0.0600
     51 H51        -9.6311   -1.7424   52.7274 H       1  ZINC000467185792    0.4500
     52 H52       -11.1982    1.3095   63.4504 H       1  ZINC000467185792    0.1300
     53 H53        -9.7827    1.0474   65.4443 H       1  ZINC000467185792    0.1400
@<TRIPOS>BOND
     1     1     2    1
     2     1    30    1
     3     1    31    1
     4     1    32    1
     5     2     3    1
     6     2    33    1
     7     2    34    1
     8     3     4    1
     9     3    35    1
    10     3    36    1
    11     4     5    1
    12     5    29   ar
    13     5     6   ar
    14     6     7   ar
    15     6    37    1
    16     7     8   ar
    17     7    38    1
    18     8     9    1
    19     8    28   ar
    20     9    27    1
    21     9    10    2
    22    10    11    1
    23    10    39    1
    24    11    12    1
    25    12    13    1
    26    12    27    2
    27    13    14   am
    28    13    40    1
    29    14    15    2
    30    14    16    1
    31    16    25    1
    32    16    17    2
    33    17    18    1
    34    17    20    1
    35    18    19    1
    36    18    41    1
    37    18    42    1
    38    19    43    1
    39    19    44    1
    40    19    45    1
    41    20    21    1
    42    20    23    2
    43    21    22    1
    44    21    46    1
    45    21    47    1
    46    22    48    1
    47    22    49    1
    48    22    50    1
    49    23    24    1
    50    24    25   am
    51    24    51    1
    52    25    26    2
    53    28    29   ar
    54    28    52    1
    55    29    53    1
@<TRIPOS>SUBSTRUCTURE
     1 ZINC000467185792        1 TEMP              0 ****  ****    0 ROOT


##########                                Name:    ZINC001120957943
##########                DOCK_Rotatable_Bonds:                   4
##########                         Heavy_Atoms:                  27
##########                    Molecular_Weight:             396.802
##########                DOCK_Rotatable_Bonds:                   4
##########                       Formal_Charge:          -0.0199996
##########                     HBond_Acceptors:                  10
##########                        HBond_Donors:                   0
##########                         Heavy_Atoms:                  27
##########                          Grid_Score:          -32.681572
##########                     Grid_vdw_energy:          -31.531096
##########                      Grid_es_energy:           -1.150478
##########           Internal_energy_repulsive:            8.895259

@<TRIPOS>MOLECULE
ZINC001120957943
 43 46 1 0 0
SMALL
USER_CHARGES


@<TRIPOS>ATOM
      1 C1        -10.1508    0.8140   60.1678 C.3     1  ZINC001120957943    0.0900
      2 N2         -9.4819   -0.1836   59.3290 N.pl3   1  ZINC001120957943   -0.6000
      3 C3         -9.4244   -1.5827   59.7594 C.3     1  ZINC001120957943    0.2200
      4 C4        -10.3564   -2.4081   58.9103 C.2     1  ZINC001120957943    0.1600
      5 N5        -10.0112   -3.3178   58.0355 N.2     1  ZINC001120957943   -0.2500
      6 N6        -11.0660   -3.8233   57.4938 N.2     1  ZINC001120957943   -0.2800
      7 C7        -12.1228   -3.2609   57.9962 C.2     1  ZINC001120957943    0.1700
      8 C8        -13.5715   -3.5233   57.6699 C.3     1  ZINC001120957943   -0.0300
      9 C9        -14.4032   -2.3547   58.2156 C.3     1  ZINC001120957943   -0.1300
     10 C10       -14.0005   -2.0814   59.6676 C.3     1  ZINC001120957943   -0.1500
     11 H11       -14.0245   -3.0133   60.2325 H       1  ZINC001120957943    0.1300
     12 C12       -14.9800   -1.0836   60.2888 C.3     1  ZINC001120957943    0.4600
     13 F13       -14.5757   -0.7844   61.5942 F       1  ZINC001120957943   -0.1700
     14 F14       -14.9979    0.0890   59.5258 F       1  ZINC001120957943   -0.1800
     15 F15       -16.2620   -1.6430   60.3143 F       1  ZINC001120957943   -0.1800
     16 C16       -12.5836   -1.4970   59.7066 C.3     1  ZINC001120957943    0.1100
     17 N17       -11.7023   -2.3527   58.9128 N.pl3   1  ZINC001120957943   -0.4700
     18 C18        -8.9028    0.1967   58.1272 C.ar    1  ZINC001120957943    0.3700
     19 C19        -7.9106    1.1926   58.1152 C.ar    1  ZINC001120957943    0.0500
     20 N20        -7.3518    1.5647   56.9889 N.ar    1  ZINC001120957943   -0.3900
     21 C21        -7.7271    0.9930   55.8378 C.ar    1  ZINC001120957943    0.0400
     22 C22        -7.1433    1.3735   54.6177 C.ar    1  ZINC001120957943   -0.0600
     23 C23        -7.5439    0.7749   53.4614 C.ar    1  ZINC001120957943   -0.0400
     24 Cl24       -6.8192    1.2489   51.9568 Cl      1  ZINC001120957943   -0.0600
     25 C25        -8.5275   -0.2136   53.4695 C.ar    1  ZINC001120957943   -0.0800
     26 C26        -9.1143   -0.6067   54.6328 C.ar    1  ZINC001120957943   -0.0800
     27 C27        -8.7267   -0.0112   55.8454 C.ar    1  ZINC001120957943    0.1400
     28 N28        -9.2837   -0.3829   57.0047 N.ar    1  ZINC001120957943   -0.4700
     29 H29        -9.4303    1.2473   60.8617 H       1  ZINC001120957943    0.0700
     30 H30       -10.5655    1.6001   59.5368 H       1  ZINC001120957943    0.0800
     31 H31       -10.9542    0.3369   60.7291 H       1  ZINC001120957943    0.0700
     32 H32        -8.4061   -1.9553   59.6488 H       1  ZINC001120957943    0.1200
     33 H33        -9.7259   -1.6540   60.8045 H       1  ZINC001120957943    0.1000
     34 H34       -13.6987   -3.5926   56.5895 H       1  ZINC001120957943    0.1100
     35 H35       -13.8917   -4.4535   58.1390 H       1  ZINC001120957943    0.1000
     36 H36       -14.2196   -1.4649   57.6134 H       1  ZINC001120957943    0.0900
     37 H37       -15.4619   -2.6108   58.1737 H       1  ZINC001120957943    0.1000
     38 H38       -12.5922   -0.4894   59.2911 H       1  ZINC001120957943    0.1000
     39 H39       -12.2288   -1.4669   60.7368 H       1  ZINC001120957943    0.1100
     40 H40        -7.6062    1.6558   59.0421 H       1  ZINC001120957943    0.1700
     41 H41        -6.3804    2.1375   54.5967 H       1  ZINC001120957943    0.1500
     42 H42        -8.8282   -0.6733   52.5396 H       1  ZINC001120957943    0.1400
     43 H43        -9.8751   -1.3732   54.6242 H       1  ZINC001120957943    0.1500
@<TRIPOS>BOND
     1     1     2    1
     2     1    29    1
     3     1    30    1
     4     1    31    1
     5     2     3    1
     6     2    18    1
     7     3     4    1
     8     3    32    1
     9     3    33    1
    10     4    17    1
    11     4     5    2
    12     5     6    1
    13     6     7    2
    14     7    17    1
    15     7     8    1
    16     8     9    1
    17     8    34    1
    18     8    35    1
    19     9    10    1
    20     9    36    1
    21     9    37    1
    22    10    11    1
    23    10    12    1
    24    10    16    1
    25    12    13    1
    26    12    14    1
    27    12    15    1
    28    16    17    1
    29    16    38    1
    30    16    39    1
    31    18    28   ar
    32    18    19   ar
    33    19    20   ar
    34    19    40    1
    35    20    21   ar
    36    21    27   ar
    37    21    22   ar
    38    22    23   ar
    39    22    41    1
    40    23    24    1
    41    23    25   ar
    42    25    26   ar
    43    25    42    1
    44    26    27   ar
    45    26    43    1
    46    27    28   ar
@<TRIPOS>SUBSTRUCTURE
     1 ZINC001120957943        1 TEMP              0 ****  ****    0 ROOT


##########                                Name:    ZINC000465642058
##########                DOCK_Rotatable_Bonds:                  10
##########                         Heavy_Atoms:                  31
##########                    Molecular_Weight:             420.511
##########                DOCK_Rotatable_Bonds:                  10
##########                       Formal_Charge:          1.2666e-07
##########                     HBond_Acceptors:                   7
##########                        HBond_Donors:                   2
##########                         Heavy_Atoms:                  31
##########                          Grid_Score:          -32.666573
##########                     Grid_vdw_energy:          -31.203266
##########                      Grid_es_energy:           -1.463305
##########           Internal_energy_repulsive:           20.052864

@<TRIPOS>MOLECULE
ZINC000465642058
 59 62 1 0 0
SMALL
USER_CHARGES


@<TRIPOS>ATOM
      1 C1         -9.2845   -0.6719   61.3904 C.3     1  ZINC000465642058   -0.1500
      2 C2         -8.8077   -0.5888   59.9390 C.3     1  ZINC000465642058    0.0500
      3 O3         -9.9360   -0.4421   59.0746 O.3     1  ZINC000465642058   -0.3000
      4 C4         -9.7184   -0.6052   57.7422 C.ar    1  ZINC000465642058    0.1200
      5 C5         -9.1243    0.4081   57.0033 C.ar    1  ZINC000465642058   -0.1600
      6 C6         -8.9049    0.2371   55.6542 C.ar    1  ZINC000465642058   -0.1300
      7 C7         -9.2653   -0.9435   55.0185 C.ar    1  ZINC000465642058    0.0700
      8 C8         -9.8654   -1.9551   55.7643 C.ar    1  ZINC000465642058   -0.0700
      9 C9        -10.0836   -1.7877   57.1157 C.ar    1  ZINC000465642058   -0.1100
     10 C10       -10.7331   -2.8894   57.9128 C.3     1  ZINC000465642058    0.1900
     11 N11       -12.1892   -2.7362   57.8614 N.am    1  ZINC000465642058   -0.7300
     12 C12       -12.8979   -2.6446   59.0041 C.2     1  ZINC000465642058    0.7100
     13 O13       -12.3289   -2.6907   60.0777 O.2     1  ZINC000465642058   -0.5900
     14 N14       -14.2372   -2.5021   58.9568 N.am    1  ZINC000465642058   -0.6200
     15 C15       -15.0078   -2.4044   60.1990 C.3     1  ZINC000465642058    0.1900
     16 C16       -14.9812   -0.9819   60.6960 C.2     1  ZINC000465642058    0.0500
     17 N17       -16.0194   -0.1977   60.8333 N.2     1  ZINC000465642058   -0.2700
     18 N18       -15.5733    1.0377   61.3204 N.pl3   1  ZINC000465642058   -0.4700
     19 C19       -14.2341    0.9662   61.4699 C.2     1  ZINC000465642058    0.0600
     20 C20       -13.8430   -0.2741   61.0960 C.2     1  ZINC000465642058   -0.2600
     21 C21       -14.9226   -2.4448   57.6632 C.3     1  ZINC000465642058    0.1700
     22 C22       -15.0844   -1.0065   57.2437 C.ar    1  ZINC000465642058   -0.1100
     23 C23       -16.1910   -0.6207   56.5105 C.ar    1  ZINC000465642058   -0.0900
     24 C24       -16.3393    0.6987   56.1256 C.ar    1  ZINC000465642058   -0.1200
     25 C25       -15.3813    1.6323   56.4742 C.ar    1  ZINC000465642058   -0.1200
     26 C26       -14.2752    1.2466   57.2081 C.ar    1  ZINC000465642058   -0.1300
     27 C27       -14.1290   -0.0719   57.5967 C.ar    1  ZINC000465642058   -0.1100
     28 O28        -8.9401   -0.9103   53.6959 O.3     1  ZINC000465642058   -0.3000
     29 C29        -8.7518    0.4558   53.2893 C.3     1  ZINC000465642058    0.0800
     30 H30        -9.6876    0.8844   52.9305 H       1  ZINC000465642058    0.0900
     31 C31        -7.6652    0.5573   52.2169 C.3     1  ZINC000465642058   -0.1500
     32 C32        -8.3006    1.1437   54.5993 C.3     1  ZINC000465642058   -0.1100
     33 H33        -9.9457   -1.5306   61.5071 H       1  ZINC000465642058    0.0700
     34 H34        -8.4239   -0.7837   62.0498 H       1  ZINC000465642058    0.0800
     35 H35        -9.8238    0.2396   61.6484 H       1  ZINC000465642058    0.0700
     36 H36        -8.1466    0.2700   59.8223 H       1  ZINC000465642058    0.0600
     37 H37        -8.2684   -1.5002   59.6810 H       1  ZINC000465642058    0.0600
     38 H38        -8.8346    1.3302   57.4854 H       1  ZINC000465642058    0.1300
     39 H39       -10.1573   -2.8768   55.2829 H       1  ZINC000465642058    0.1400
     40 H40       -10.4543   -3.8554   57.4918 H       1  ZINC000465642058    0.0700
     41 H41       -10.3983   -2.8342   58.9486 H       1  ZINC000465642058    0.0800
     42 H42       -12.6432   -2.7007   57.0049 H       1  ZINC000465642058    0.4000
     43 H43       -16.0387   -2.7044   60.0115 H       1  ZINC000465642058    0.1000
     44 H44       -14.5693   -3.0603   60.9510 H       1  ZINC000465642058    0.0900
     45 H45       -16.1291    1.8084   61.5158 H       1  ZINC000465642058    0.4400
     46 H46       -13.5903    1.7560   61.8280 H       1  ZINC000465642058    0.1800
     47 H47       -12.8302   -0.6491   61.0997 H       1  ZINC000465642058    0.1500
     48 H48       -14.3339   -2.9772   56.9162 H       1  ZINC000465642058    0.0900
     49 H49       -15.9044   -2.9103   57.7513 H       1  ZINC000465642058    0.0900
     50 H50       -16.9394   -1.3501   56.2381 H       1  ZINC000465642058    0.1300
     51 H51       -17.2035    1.0000   55.5521 H       1  ZINC000465642058    0.1200
     52 H52       -15.4969    2.6630   56.1729 H       1  ZINC000465642058    0.1200
     53 H53       -13.5266    1.9760   57.4803 H       1  ZINC000465642058    0.1200
     54 H54       -13.2649   -0.3732   58.1701 H       1  ZINC000465642058    0.1200
     55 H55        -7.9686   -0.0106   51.3374 H       1  ZINC000465642058    0.0700
     56 H56        -7.5216    1.6025   51.9430 H       1  ZINC000465642058    0.0800
     57 H57        -6.7313    0.1522   52.6066 H       1  ZINC000465642058    0.0700
     58 H58        -8.7096    2.1515   54.6711 H       1  ZINC000465642058    0.0900
     59 H59        -7.2134    1.1600   54.6762 H       1  ZINC000465642058    0.1000
@<TRIPOS>BOND
     1     1     2    1
     2     1    33    1
     3     1    34    1
     4     1    35    1
     5     2     3    1
     6     2    36    1
     7     2    37    1
     8     3     4    1
     9     4     9   ar
    10     4     5   ar
    11     5     6   ar
    12     5    38    1
    13     6    32    1
    14     6     7   ar
    15     7     8   ar
    16     7    28    1
    17     8     9   ar
    18     8    39    1
    19     9    10    1
    20    10    11    1
    21    10    40    1
    22    10    41    1
    23    11    12   am
    24    11    42    1
    25    12    13    2
    26    12    14   am
    27    14    15    1
    28    14    21    1
    29    15    16    1
    30    15    43    1
    31    15    44    1
    32    16    20    1
    33    16    17    2
    34    17    18    1
    35    18    19    1
    36    18    45    1
    37    19    20    2
    38    19    46    1
    39    20    47    1
    40    21    22    1
    41    21    48    1
    42    21    49    1
    43    22    27   ar
    44    22    23   ar
    45    23    24   ar
    46    23    50    1
    47    24    25   ar
    48    24    51    1
    49    25    26   ar
    50    25    52    1
    51    26    27   ar
    52    26    53    1
    53    27    54    1
    54    28    29    1
    55    29    30    1
    56    29    31    1
    57    29    32    1
    58    31    55    1
    59    31    56    1
    60    31    57    1
    61    32    58    1
    62    32    59    1
@<TRIPOS>SUBSTRUCTURE
     1 ZINC000465642058        1 TEMP              0 ****  ****    0 ROOT


##########                                Name:    ZINC000426805817
##########                DOCK_Rotatable_Bonds:                   6
##########                         Heavy_Atoms:                  26
##########                    Molecular_Weight:             412.286
##########                DOCK_Rotatable_Bonds:                   6
##########                       Formal_Charge:          -0.0100001
##########                     HBond_Acceptors:                   5
##########                        HBond_Donors:                   4
##########                         Heavy_Atoms:                  26
##########                          Grid_Score:          -32.626144
##########                     Grid_vdw_energy:          -31.811668
##########                      Grid_es_energy:           -0.814478
##########           Internal_energy_repulsive:            4.312222

@<TRIPOS>MOLECULE
ZINC000426805817
 44 47 1 0 0
SMALL
USER_CHARGES


@<TRIPOS>ATOM
      1 O1        -11.2705   -2.4373   59.3579 O.co2   1  ZINC000426805817   -0.6300
      2 C2        -10.0725   -2.2603   59.2170 C.2     1  ZINC000426805817    0.5000
      3 O3         -9.3838   -3.1281   58.7079 O.co2   1  ZINC000426805817   -0.6800
      4 C4         -9.4439   -0.9665   59.6664 C.3     1  ZINC000426805817   -0.0500
      5 H5         -8.3701   -1.0009   59.4818 H       1  ZINC000426805817    0.1300
      6 C6        -10.0584    0.1973   58.8860 C.3     1  ZINC000426805817   -0.0500
      7 C7         -9.4667    0.2414   57.5008 C.2     1  ZINC000426805817   -0.1900
      8 C8         -9.9150   -0.4158   56.4196 C.2     1  ZINC000426805817    0.0500
      9 N9         -9.1245   -0.1312   55.3396 N.pl3   1  ZINC000426805817   -0.5900
     10 C10        -8.1223    0.7386   55.7090 C.ar    1  ZINC000426805817    0.1100
     11 C11        -7.0721    1.3350   55.0196 C.ar    1  ZINC000426805817   -0.1200
     12 C12        -6.2102    2.1831   55.6797 C.ar    1  ZINC000426805817   -0.0700
     13 C13        -6.3779    2.4514   57.0320 C.ar    1  ZINC000426805817   -0.1100
     14 Br14       -5.1808    3.6195   57.9142 Br      1  ZINC000426805817   -0.0400
     15 C15        -7.4115    1.8720   57.7338 C.ar    1  ZINC000426805817   -0.0400
     16 C16        -8.2967    1.0148   57.0773 C.ar    1  ZINC000426805817   -0.1000
     17 N17        -9.6879   -0.7764   61.1024 N.4     1  ZINC000426805817   -0.4800
     18 H18       -10.6370   -0.4643   61.2439 H       1  ZINC000426805817    0.4000
     19 H19        -9.5455   -1.6502   61.5864 H       1  ZINC000426805817    0.4200
     20 C20        -8.7575    0.2317   61.6280 C.3     1  ZINC000426805817    0.0400
     21 C21        -9.3215    0.8244   62.8936 C.ar    1  ZINC000426805817   -0.1600
     22 C22        -8.8737    0.3787   64.1326 C.ar    1  ZINC000426805817    0.1100
     23 N23        -7.9503   -0.5649   64.5236 N.pl3   1  ZINC000426805817   -0.5900
     24 C24        -7.8863   -0.6150   65.8896 C.2     1  ZINC000426805817    0.0600
     25 C25        -8.7434    0.2710   66.4208 C.2     1  ZINC000426805817   -0.2000
     26 C26        -9.4110    0.9437   65.3039 C.ar    1  ZINC000426805817   -0.1100
     27 C27       -10.3834    1.9411   65.2132 C.ar    1  ZINC000426805817   -0.0400
     28 C28       -10.8089    2.3641   63.9853 C.ar    1  ZINC000426805817   -0.1500
     29 C29       -10.2783    1.8136   62.8271 C.ar    1  ZINC000426805817   -0.0700
     30 H30       -11.1372    0.0584   58.8161 H       1  ZINC000426805817    0.1200
     31 H31        -9.8453    1.1334   59.4022 H       1  ZINC000426805817    0.0900
     32 H32       -10.7724   -1.0722   56.4045 H       1  ZINC000426805817    0.1700
     33 H33        -9.2512   -0.4888   54.4468 H       1  ZINC000426805817    0.4200
     34 H34        -6.9320    1.1331   53.9679 H       1  ZINC000426805817    0.1300
     35 H35        -5.3958    2.6435   55.1402 H       1  ZINC000426805817    0.1400
     36 H36        -7.5392    2.0828   58.7853 H       1  ZINC000426805817    0.1400
     37 H37        -7.7972   -0.2370   61.8427 H       1  ZINC000426805817    0.1500
     38 H38        -8.6196    1.0199   60.8877 H       1  ZINC000426805817    0.1300
     39 H39        -7.4239   -1.1129   63.9206 H       1  ZINC000426805817    0.4300
     40 H40        -7.2416   -1.2705   66.4563 H       1  ZINC000426805817    0.1800
     41 H41        -8.9095    0.4531   67.4723 H       1  ZINC000426805817    0.1500
     42 H42       -10.7982    2.3767   66.1102 H       1  ZINC000426805817    0.1300
     43 H43       -11.5614    3.1358   63.9158 H       1  ZINC000426805817    0.1300
     44 H44       -10.6248    2.1583   61.8640 H       1  ZINC000426805817    0.1300
@<TRIPOS>BOND
     1     1     2   ar
     2     2     3   ar
     3     2     4    1
     4     4     5    1
     5     4     6    1
     6     4    17    1
     7     6     7    1
     8     6    30    1
     9     6    31    1
    10     7    16    1
    11     7     8    2
    12     8     9    1
    13     8    32    1
    14     9    10    1
    15     9    33    1
    16    10    16   ar
    17    10    11   ar
    18    11    12   ar
    19    11    34    1
    20    12    13   ar
    21    12    35    1
    22    13    14    1
    23    13    15   ar
    24    15    16   ar
    25    15    36    1
    26    17    18    1
    27    17    19    1
    28    17    20    1
    29    20    21    1
    30    20    37    1
    31    20    38    1
    32    21    29   ar
    33    21    22   ar
    34    22    26   ar
    35    22    23    1
    36    23    24    1
    37    23    39    1
    38    24    25    2
    39    24    40    1
    40    25    26    1
    41    25    41    1
    42    26    27   ar
    43    27    28   ar
    44    27    42    1
    45    28    29   ar
    46    28    43    1
    47    29    44    1
@<TRIPOS>SUBSTRUCTURE
     1 ZINC000426805817        1 TEMP              0 ****  ****    0 ROOT


##########                                Name:    ZINC000066361645
##########                DOCK_Rotatable_Bonds:                   8
##########                         Heavy_Atoms:                  27
##########                    Molecular_Weight:             392.519
##########                DOCK_Rotatable_Bonds:                   8
##########                       Formal_Charge:           0.0100004
##########                     HBond_Acceptors:                   7
##########                        HBond_Donors:                   2
##########                         Heavy_Atoms:                  27
##########                          Grid_Score:          -32.624813
##########                     Grid_vdw_energy:          -31.348953
##########                      Grid_es_energy:           -1.275859
##########           Internal_energy_repulsive:           12.112291

@<TRIPOS>MOLECULE
ZINC000066361645
 55 57 1 0 0
SMALL
USER_CHARGES


@<TRIPOS>ATOM
      1 C1         -4.5555    2.7064   57.0993 C.3     1  ZINC000066361645   -0.1400
      2 S2         -6.2370    2.7962   57.7736 S.3     1  ZINC000066361645   -0.1100
      3 C3         -7.1590    1.7703   56.6773 C.ar    1  ZINC000066361645   -0.1200
      4 C4         -6.8577    1.7531   55.3238 C.ar    1  ZINC000066361645   -0.1100
      5 C5         -7.5825    0.9450   54.4598 C.ar    1  ZINC000066361645    0.0500
      6 C6         -8.6110    0.1502   54.9508 C.ar    1  ZINC000066361645    0.0700
      7 C7         -8.9152    0.1673   56.3042 C.ar    1  ZINC000066361645   -0.1100
      8 C8         -8.1892    0.9700   57.1701 C.ar    1  ZINC000066361645    0.1800
      9 N9         -8.4978    0.9858   58.5387 N.am    1  ZINC000066361645   -0.6600
     10 C10        -8.6149   -0.1732   59.2166 C.2     1  ZINC000066361645    0.5100
     11 O11        -8.4535   -1.2301   58.6434 O.2     1  ZINC000066361645   -0.5000
     12 C12        -8.9463   -0.1561   60.6865 C.3     1  ZINC000066361645   -0.1500
     13 C13       -10.3064    0.5128   60.8950 C.3     1  ZINC000066361645    0.1600
     14 H14       -10.4361    1.3086   60.1617 H       1  ZINC000066361645    0.1000
     15 C15       -10.3738    1.1028   62.3051 C.3     1  ZINC000066361645   -0.1600
     16 N16       -11.3699   -0.4812   60.7303 N.am    1  ZINC000066361645   -0.7200
     17 C17       -12.3286   -0.2949   59.8015 C.2     1  ZINC000066361645    0.5300
     18 O18       -12.3101    0.6952   59.1012 O.2     1  ZINC000066361645   -0.5400
     19 C19       -13.4235   -1.3165   59.6333 C.3     1  ZINC000066361645   -0.1100
     20 C20       -14.6707   -0.6383   59.0629 C.3     1  ZINC000066361645   -0.1100
     21 C21       -15.7823   -1.6757   58.8922 C.3     1  ZINC000066361645   -0.1200
     22 C22       -15.3141   -2.7717   57.9329 C.3     1  ZINC000066361645   -0.1200
     23 C23       -14.0668   -3.4500   58.5033 C.3     1  ZINC000066361645   -0.1200
     24 C24       -12.9552   -2.4127   58.6740 C.3     1  ZINC000066361645   -0.1000
     25 O25        -9.3277   -0.6550   54.1174 O.3     1  ZINC000066361645   -0.3000
     26 C26        -9.2444   -0.3692   52.7171 C.3     1  ZINC000066361645    0.0200
     27 C27        -7.7680   -0.1533   52.3579 C.3     1  ZINC000066361645    0.0200
     28 O28        -7.2744    0.9445   53.1331 O.3     1  ZINC000066361645   -0.3100
     29 H29        -4.2150    1.6710   57.1087 H       1  ZINC000066361645    0.0900
     30 H30        -4.5541    3.0801   56.0753 H       1  ZINC000066361645    0.0900
     31 H31        -3.8866    3.3143   57.7087 H       1  ZINC000066361645    0.1100
     32 H32        -6.0577    2.3698   54.9416 H       1  ZINC000066361645    0.1400
     33 H33        -9.7165   -0.4488   56.6845 H       1  ZINC000066361645    0.1600
     34 H34        -8.6269    1.8309   58.9970 H       1  ZINC000066361645    0.4100
     35 H35        -8.9828   -1.1785   61.0627 H       1  ZINC000066361645    0.1000
     36 H36        -8.1805    0.4020   61.2252 H       1  ZINC000066361645    0.1200
     37 H37       -10.2441    0.3070   63.0386 H       1  ZINC000066361645    0.0600
     38 H38        -9.5826    1.8424   62.4277 H       1  ZINC000066361645    0.0700
     39 H39       -11.3428    1.5794   62.4536 H       1  ZINC000066361645    0.0700
     40 H40       -11.3840   -1.2736   61.2896 H       1  ZINC000066361645    0.4000
     41 H41       -13.6605   -1.7579   60.6014 H       1  ZINC000066361645    0.1000
     42 H42       -15.0044    0.1425   59.7463 H       1  ZINC000066361645    0.0600
     43 H43       -14.4338   -0.1971   58.0948 H       1  ZINC000066361645    0.0700
     44 H44       -16.0193   -2.1169   59.8602 H       1  ZINC000066361645    0.0600
     45 H45       -16.6709   -1.1925   58.4858 H       1  ZINC000066361645    0.0700
     46 H46       -16.1061   -3.5108   57.8113 H       1  ZINC000066361645    0.0600
     47 H47       -15.0771   -2.3305   56.9649 H       1  ZINC000066361645    0.0600
     48 H48       -14.3039   -3.8913   59.4715 H       1  ZINC000066361645    0.0600
     49 H49       -13.7332   -4.2310   57.8200 H       1  ZINC000066361645    0.0700
     50 H50       -12.7182   -1.9714   57.7060 H       1  ZINC000066361645    0.0700
     51 H51       -12.0667   -2.8959   59.0805 H       1  ZINC000066361645    0.0700
     52 H52        -9.6427   -1.2081   52.1463 H       1  ZINC000066361645    0.1300
     53 H53        -9.8133    0.5328   52.4915 H       1  ZINC000066361645    0.0800
     54 H54        -7.1980   -1.0529   52.5898 H       1  ZINC000066361645    0.0800
     55 H55        -7.6778    0.0764   51.2962 H       1  ZINC000066361645    0.1200
@<TRIPOS>BOND
     1     1     2    1
     2     1    29    1
     3     1    30    1
     4     1    31    1
     5     2     3    1
     6     3     8   ar
     7     3     4   ar
     8     4     5   ar
     9     4    32    1
    10     5    28    1
    11     5     6   ar
    12     6     7   ar
    13     6    25    1
    14     7     8   ar
    15     7    33    1
    16     8     9    1
    17     9    10   am
    18     9    34    1
    19    10    11    2
    20    10    12    1
    21    12    13    1
    22    12    35    1
    23    12    36    1
    24    13    14    1
    25    13    15    1
    26    13    16    1
    27    15    37    1
    28    15    38    1
    29    15    39    1
    30    16    17   am
    31    16    40    1
    32    17    18    2
    33    17    19    1
    34    19    24    1
    35    19    20    1
    36    19    41    1
    37    20    21    1
    38    20    42    1
    39    20    43    1
    40    21    22    1
    41    21    44    1
    42    21    45    1
    43    22    23    1
    44    22    46    1
    45    22    47    1
    46    23    24    1
    47    23    48    1
    48    23    49    1
    49    24    50    1
    50    24    51    1
    51    25    26    1
    52    26    27    1
    53    26    52    1
    54    26    53    1
    55    27    28    1
    56    27    54    1
    57    27    55    1
@<TRIPOS>SUBSTRUCTURE
     1 ZINC000066361645        1 TEMP              0 ****  ****    0 ROOT


##########                                Name:    ZINC000746432885
##########                DOCK_Rotatable_Bonds:                  11
##########                         Heavy_Atoms:                  31
##########                    Molecular_Weight:              419.44
##########                DOCK_Rotatable_Bonds:                  11
##########                       Formal_Charge:           0.0199995
##########                     HBond_Acceptors:                   9
##########                        HBond_Donors:                   2
##########                         Heavy_Atoms:                  31
##########                          Grid_Score:          -32.617657
##########                     Grid_vdw_energy:          -31.825420
##########                      Grid_es_energy:           -0.792236
##########           Internal_energy_repulsive:           14.094687

@<TRIPOS>MOLECULE
ZINC000746432885
 52 54 1 0 0
SMALL
USER_CHARGES


@<TRIPOS>ATOM
      1 C1         -8.9738    1.2416   66.3025 C.3     1  ZINC000746432885    0.0300
      2 O2         -9.8544    1.5573   65.2222 O.3     1  ZINC000746432885   -0.3200
      3 C3         -9.5799    0.9922   64.0171 C.ar    1  ZINC000746432885    0.1300
      4 C4         -8.4949    0.1385   63.8811 C.ar    1  ZINC000746432885   -0.2000
      5 C5         -8.2179   -0.4346   62.6550 C.ar    1  ZINC000746432885   -0.0800
      6 C6         -9.0206   -0.1577   61.5639 C.ar    1  ZINC000746432885   -0.1400
      7 C7        -10.1026    0.6928   61.6969 C.ar    1  ZINC000746432885   -0.0600
      8 C8        -10.9759    0.9922   60.5058 C.3     1  ZINC000746432885    0.2300
      9 N9        -10.1344    1.2207   59.3284 N.am    1  ZINC000746432885   -0.6900
     10 C10       -10.6040    1.9479   58.2954 C.2     1  ZINC000746432885    0.5200
     11 O11       -11.7234    2.4147   58.3411 O.2     1  ZINC000746432885   -0.5100
     12 C12        -9.7470    2.1793   57.0947 C.2     1  ZINC000746432885    0.5100
     13 O13        -9.7979    3.2409   56.5080 O.2     1  ZINC000746432885   -0.5100
     14 N14        -8.9169    1.2095   56.6622 N.am    1  ZINC000746432885   -0.6100
     15 C15        -8.1094    1.4277   55.5336 C.2     1  ZINC000746432885    0.0000
     16 C16        -8.1072    0.6865   54.3951 C.2     1  ZINC000746432885    0.0400
     17 N17        -7.1914    1.2240   53.5578 N.pl3   1  ZINC000746432885   -0.3800
     18 C18        -6.8620    0.7380   52.2157 C.3     1  ZINC000746432885    0.2500
     19 C19        -5.5239    1.2185   51.8345 C.1     1  ZINC000746432885    0.1900
     20 N20        -4.4913    1.5894   51.5403 N.1     1  ZINC000746432885   -0.3900
     21 N21        -6.6134    2.3271   54.1987 N.2     1  ZINC000746432885   -0.2800
     22 C22        -7.1650    2.4541   55.3782 C.2     1  ZINC000746432885    0.0700
     23 C23       -11.8927   -0.1760   60.2488 C.ar    1  ZINC000746432885   -0.0500
     24 C24       -13.1211   -0.2419   60.8798 C.ar    1  ZINC000746432885   -0.1500
     25 C25       -13.9647   -1.3121   60.6458 C.ar    1  ZINC000746432885   -0.0700
     26 C26       -13.5817   -2.3186   59.7805 C.ar    1  ZINC000746432885   -0.2000
     27 C27       -12.3496   -2.2549   59.1463 C.ar    1  ZINC000746432885    0.1300
     28 O28       -11.9705   -3.2439   58.2947 O.3     1  ZINC000746432885   -0.3200
     29 C29       -12.7552   -3.4188   57.1133 C.3     1  ZINC000746432885    0.0300
     30 C30       -11.5072   -1.1774   59.3787 C.ar    1  ZINC000746432885   -0.1300
     31 C31       -10.3875    1.2636   62.9222 C.ar    1  ZINC000746432885   -0.1300
     32 H32        -7.9624    1.5621   66.0523 H       1  ZINC000746432885    0.0600
     33 H33        -9.3056    1.7566   67.2041 H       1  ZINC000746432885    0.1000
     34 H34        -8.9817    0.1654   66.4750 H       1  ZINC000746432885    0.0600
     35 H35        -7.8670   -0.0776   64.7328 H       1  ZINC000746432885    0.1300
     36 H36        -7.3733   -1.0993   62.5486 H       1  ZINC000746432885    0.1300
     37 H37        -8.8021   -0.6061   60.6061 H       1  ZINC000746432885    0.1200
     38 H38       -11.5705    1.8835   60.7059 H       1  ZINC000746432885    0.1200
     39 H39        -9.2393    0.8486   59.2924 H       1  ZINC000746432885    0.4200
     40 H40        -8.8771    0.3608   57.1303 H       1  ZINC000746432885    0.4200
     41 H41        -8.7251   -0.1764   54.1950 H       1  ZINC000746432885    0.1900
     42 H42        -6.8714   -0.3520   52.2115 H       1  ZINC000746432885    0.1300
     43 H43        -7.5983    1.1103   51.5035 H       1  ZINC000746432885    0.1500
     44 H44        -6.9294    3.2137   56.1089 H       1  ZINC000746432885    0.2100
     45 H45       -13.4223    0.5439   61.5569 H       1  ZINC000746432885    0.1200
     46 H46       -14.9237   -1.3614   61.1402 H       1  ZINC000746432885    0.1300
     47 H47       -14.2408   -3.1546   59.5984 H       1  ZINC000746432885    0.1300
     48 H48       -12.3454   -4.2385   56.5230 H       1  ZINC000746432885    0.1000
     49 H49       -13.7835   -3.6498   57.3911 H       1  ZINC000746432885    0.0600
     50 H50       -12.7351   -2.5016   56.5247 H       1  ZINC000746432885    0.0600
     51 H51       -10.5475   -1.1254   58.8861 H       1  ZINC000746432885    0.1400
     52 H52       -11.2327    1.9279   63.0257 H       1  ZINC000746432885    0.1300
@<TRIPOS>BOND
     1     1     2    1
     2     1    32    1
     3     1    33    1
     4     1    34    1
     5     2     3    1
     6     3    31   ar
     7     3     4   ar
     8     4     5   ar
     9     4    35    1
    10     5     6   ar
    11     5    36    1
    12     6     7   ar
    13     6    37    1
    14     7     8    1
    15     7    31   ar
    16     8     9    1
    17     8    23    1
    18     8    38    1
    19     9    10   am
    20     9    39    1
    21    10    11    2
    22    10    12    1
    23    12    13    2
    24    12    14   am
    25    14    15    1
    26    14    40    1
    27    15    22    1
    28    15    16    2
    29    16    17    1
    30    16    41    1
    31    17    18    1
    32    17    21    1
    33    18    19    1
    34    18    42    1
    35    18    43    1
    36    19    20    3
    37    21    22    2
    38    22    44    1
    39    23    30   ar
    40    23    24   ar
    41    24    25   ar
    42    24    45    1
    43    25    26   ar
    44    25    46    1
    45    26    27   ar
    46    26    47    1
    47    27    28    1
    48    27    30   ar
    49    28    29    1
    50    29    48    1
    51    29    49    1
    52    29    50    1
    53    30    51    1
    54    31    52    1
@<TRIPOS>SUBSTRUCTURE
     1 ZINC000746432885        1 TEMP              0 ****  ****    0 ROOT


##########                                Name:    ZINC001362587626
##########                DOCK_Rotatable_Bonds:                   9
##########                         Heavy_Atoms:                  25
##########                    Molecular_Weight:             346.346
##########                DOCK_Rotatable_Bonds:                   9
##########                       Formal_Charge:        -4.02331e-07
##########                     HBond_Acceptors:                  10
##########                        HBond_Donors:                   2
##########                         Heavy_Atoms:                  25
##########                          Grid_Score:          -32.601471
##########                     Grid_vdw_energy:          -32.205112
##########                      Grid_es_energy:           -0.396357
##########           Internal_energy_repulsive:            9.104516

@<TRIPOS>MOLECULE
ZINC001362587626
 43 45 1 0 0
SMALL
USER_CHARGES


@<TRIPOS>ATOM
      1 C1        -11.0861   -2.2002   59.8702 C.3     1  ZINC001362587626   -0.1600
      2 C2         -9.7660   -1.5208   60.2400 C.3     1  ZINC001362587626    0.1300
      3 H3         -9.0608   -2.2695   60.6010 H       1  ZINC001362587626    0.1200
      4 N4        -10.0051   -0.5284   61.2908 N.am    1  ZINC001362587626   -0.7100
      5 C5         -8.9864   -0.1121   62.0689 C.2     1  ZINC001362587626    0.5100
      6 O6         -7.8715   -0.5579   61.8982 O.2     1  ZINC001362587626   -0.5000
      7 C7         -9.2328    0.9075   63.1511 C.3     1  ZINC001362587626    0.1000
      8 N8         -8.8657    0.3388   64.4504 N.pl3   1  ZINC001362587626   -0.3100
      9 C9         -9.2558    0.7869   65.6581 C.2     1  ZINC001362587626    0.1600
     10 N10        -8.7052   -0.0022   66.5481 N.2     1  ZINC001362587626   -0.3000
     11 N11        -8.0131   -0.8888   65.9198 N.2     1  ZINC001362587626   -0.0700
     12 N12        -8.1123   -0.6890   64.6518 N.2     1  ZINC001362587626   -0.0700
     13 C13        -9.1950   -0.8376   59.0243 C.2     1  ZINC001362587626    0.5100
     14 O14        -8.0427   -1.0369   58.7018 O.2     1  ZINC001362587626   -0.5200
     15 N15        -9.9644   -0.0051   58.2953 N.am    1  ZINC001362587626   -0.6600
     16 C16        -9.4334    0.6301   57.1651 C.ar    1  ZINC001362587626    0.1000
     17 C17        -9.1167   -0.1127   56.0355 C.ar    1  ZINC001362587626   -0.1000
     18 C18        -8.5939    0.5140   54.9217 C.ar    1  ZINC001362587626   -0.1900
     19 C19        -8.3844    1.8853   54.9313 C.ar    1  ZINC001362587626    0.1200
     20 O20        -7.8691    2.5017   53.8343 O.3     1  ZINC001362587626   -0.2800
     21 C21        -6.6893    1.9316   53.2641 C.3     1  ZINC001362587626    0.0100
     22 C22        -6.9247    1.2443   51.9057 C.3     1  ZINC001362587626    0.0200
     23 O23        -6.5946    2.5238   51.3289 O.3     1  ZINC001362587626   -0.3700
     24 C24        -5.8291    2.9390   52.4779 C.3     1  ZINC001362587626    0.0400
     25 C25        -8.7009    2.6281   56.0593 C.ar    1  ZINC001362587626   -0.1300
     26 C26        -9.2289    2.0034   57.1719 C.ar    1  ZINC001362587626   -0.0800
     27 H27       -11.7914   -1.4515   59.5093 H       1  ZINC001362587626    0.0700
     28 H28       -10.9082   -2.9386   59.0884 H       1  ZINC001362587626    0.0800
     29 H29       -11.4992   -2.6944   60.7495 H       1  ZINC001362587626    0.0800
     30 H30       -10.8965   -0.1709   61.4265 H       1  ZINC001362587626    0.4100
     31 H31        -8.6289    1.7943   62.9590 H       1  ZINC001362587626    0.1500
     32 H32       -10.2878    1.1809   63.1592 H       1  ZINC001362587626    0.1400
     33 H33        -9.8974    1.6330   65.8556 H       1  ZINC001362587626    0.2400
     34 H34       -10.8858    0.1543   58.5532 H       1  ZINC001362587626    0.4100
     35 H35        -9.2791   -1.1803   56.0282 H       1  ZINC001362587626    0.1300
     36 H36        -8.3474   -0.0636   54.0430 H       1  ZINC001362587626    0.1400
     37 H37        -6.1227    1.3277   53.9727 H       1  ZINC001362587626    0.0900
     38 H38        -6.2040    0.4589   51.6783 H       1  ZINC001362587626    0.1000
     39 H39        -7.9577    0.9389   51.7392 H       1  ZINC001362587626    0.1000
     40 H40        -5.9931    3.9776   52.7652 H       1  ZINC001362587626    0.1000
     41 H41        -4.7739    2.6711   52.4252 H       1  ZINC001362587626    0.1000
     42 H42        -8.5377    3.6957   56.0661 H       1  ZINC001362587626    0.1400
     43 H43        -9.4757    2.5819   58.0499 H       1  ZINC001362587626    0.1500
@<TRIPOS>BOND
     1     1     2    1
     2     1    27    1
     3     1    28    1
     4     1    29    1
     5     2     3    1
     6     2     4    1
     7     2    13    1
     8     4     5   am
     9     4    30    1
    10     5     6    2
    11     5     7    1
    12     7     8    1
    13     7    31    1
    14     7    32    1
    15     8    12    1
    16     8     9    1
    17     9    10    2
    18     9    33    1
    19    10    11    1
    20    11    12    2
    21    13    14    2
    22    13    15   am
    23    15    16    1
    24    15    34    1
    25    16    26   ar
    26    16    17   ar
    27    17    18   ar
    28    17    35    1
    29    18    19   ar
    30    18    36    1
    31    19    20    1
    32    19    25   ar
    33    20    21    1
    34    21    24    1
    35    21    22    1
    36    21    37    1
    37    22    23    1
    38    22    38    1
    39    22    39    1
    40    23    24    1
    41    24    40    1
    42    24    41    1
    43    25    26   ar
    44    25    42    1
    45    26    43    1
@<TRIPOS>SUBSTRUCTURE
     1 ZINC001362587626        1 TEMP              0 ****  ****    0 ROOT


##########                                Name:    ZINC000185598309
##########                DOCK_Rotatable_Bonds:                  14
##########                         Heavy_Atoms:                  25
##########                    Molecular_Weight:             347.457
##########                DOCK_Rotatable_Bonds:                  14
##########                       Formal_Charge:               -0.02
##########                     HBond_Acceptors:                   6
##########                        HBond_Donors:                   4
##########                         Heavy_Atoms:                  25
##########                          Grid_Score:          -32.585842
##########                     Grid_vdw_energy:          -29.920475
##########                      Grid_es_energy:           -2.665366
##########           Internal_energy_repulsive:           15.622918

@<TRIPOS>MOLECULE
ZINC000185598309
 54 54 1 0 0
SMALL
USER_CHARGES


@<TRIPOS>ATOM
      1 C1        -13.4563   -5.0882   56.8319 C.3     1  ZINC000185598309   -0.1300
      2 C2        -14.1649   -4.1432   57.7677 C.2     1  ZINC000185598309   -0.1600
      3 C3        -13.6411   -2.9732   58.0377 C.2     1  ZINC000185598309   -0.1600
      4 C4        -14.3486   -2.0289   58.9750 C.3     1  ZINC000185598309   -0.0900
      5 C5        -13.3280   -1.3809   59.9127 C.3     1  ZINC000185598309    0.1700
      6 H6        -12.8288   -2.1542   60.4966 H       1  ZINC000185598309    0.1000
      7 C7        -14.0447   -0.4124   60.8557 C.3     1  ZINC000185598309    0.0600
      8 O8        -13.0826    0.2542   61.6752 O.3     1  ZINC000185598309   -0.5700
      9 N9        -12.3353   -0.6483   59.1226 N.am    1  ZINC000185598309   -0.7300
     10 C10       -11.0274   -0.7344   59.4364 C.2     1  ZINC000185598309    0.7000
     11 O11       -10.6713   -1.4213   60.3743 O.2     1  ZINC000185598309   -0.5900
     12 N12       -10.1144   -0.0592   58.7105 N.am    1  ZINC000185598309   -0.7400
     13 C13        -8.6929   -0.1515   59.0528 C.3     1  ZINC000185598309    0.1800
     14 C14        -7.9313    0.9303   58.3310 C.ar    1  ZINC000185598309   -0.0900
     15 C15        -7.5527    2.0760   59.0058 C.ar    1  ZINC000185598309   -0.1100
     16 C16        -6.8540    3.0712   58.3468 C.ar    1  ZINC000185598309   -0.1000
     17 C17        -6.5320    2.9230   57.0122 C.ar    1  ZINC000185598309   -0.1100
     18 C18        -6.9106    1.7731   56.3315 C.ar    1  ZINC000185598309    0.1400
     19 N19        -6.5856    1.6196   54.9793 N.am    1  ZINC000185598309   -0.6800
     20 C20        -7.3644    2.1777   54.0314 C.2     1  ZINC000185598309    0.5200
     21 O21        -8.3471    2.8129   54.3506 O.2     1  ZINC000185598309   -0.5200
     22 C22        -7.0143    2.0124   52.5750 C.3     1  ZINC000185598309   -0.1100
     23 H23        -5.9577    2.2359   52.4276 H       1  ZINC000185598309    0.1000
     24 C24        -7.8604    2.9713   51.7350 C.3     1  ZINC000185598309   -0.1500
     25 C25        -7.2959    0.5719   52.1431 C.3     1  ZINC000185598309   -0.1100
     26 C26        -8.5748    0.0768   52.8216 C.3     1  ZINC000185598309   -0.1600
     27 C27        -7.6074    0.7734   56.9974 C.ar    1  ZINC000185598309   -0.1300
     28 H28       -14.0391   -6.0038   56.7302 H       1  ZINC000185598309    0.0600
     29 H29       -13.3460   -4.6174   55.8550 H       1  ZINC000185598309    0.0600
     30 H30       -12.4716   -5.3270   57.2336 H       1  ZINC000185598309    0.0600
     31 H31       -15.1047   -4.4304   58.2160 H       1  ZINC000185598309    0.1100
     32 H32       -12.7019   -2.6855   57.5885 H       1  ZINC000185598309    0.1100
     33 H33       -14.8544   -1.2549   58.3976 H       1  ZINC000185598309    0.0900
     34 H34       -15.0820   -2.5816   59.5623 H       1  ZINC000185598309    0.0800
     35 H35       -14.5958    0.3237   60.2702 H       1  ZINC000185598309    0.0500
     36 H36       -14.7384   -0.9671   61.4875 H       1  ZINC000185598309    0.0500
     37 H37       -12.5005    0.8545   61.1894 H       1  ZINC000185598309    0.3800
     38 H38       -12.6193   -0.1012   58.3736 H       1  ZINC000185598309    0.4000
     39 H39       -10.3984    0.4879   57.9616 H       1  ZINC000185598309    0.4000
     40 H40        -8.5693   -0.0268   60.1286 H       1  ZINC000185598309    0.0700
     41 H41        -8.3097   -1.1271   58.7537 H       1  ZINC000185598309    0.0800
     42 H42        -7.8031    2.1943   60.0496 H       1  ZINC000185598309    0.1300
     43 H43        -6.5602    3.9654   58.8765 H       1  ZINC000185598309    0.1300
     44 H44        -5.9868    3.7007   56.4981 H       1  ZINC000185598309    0.1300
     45 H45        -5.7997    1.1116   54.7240 H       1  ZINC000185598309    0.4100
     46 H46        -7.6598    3.9976   52.0427 H       1  ZINC000185598309    0.0600
     47 H47        -7.6073    2.8518   50.6816 H       1  ZINC000185598309    0.0800
     48 H48        -8.9170    2.7478   51.8824 H       1  ZINC000185598309    0.0600
     49 H49        -7.4210    0.5348   51.0609 H       1  ZINC000185598309    0.0700
     50 H50        -6.4604   -0.0646   52.4343 H       1  ZINC000185598309    0.0700
     51 H51        -8.4497    0.1138   53.9038 H       1  ZINC000185598309    0.0600
     52 H52        -9.4104    0.7133   52.5305 H       1  ZINC000185598309    0.0600
     53 H53        -8.7753   -0.9495   52.5140 H       1  ZINC000185598309    0.0600
     54 H54        -7.9032   -0.1220   56.4709 H       1  ZINC000185598309    0.1300
@<TRIPOS>BOND
     1     1     2    1
     2     1    28    1
     3     1    29    1
     4     1    30    1
     5     2     3    2
     6     2    31    1
     7     3     4    1
     8     3    32    1
     9     4     5    1
    10     4    33    1
    11     4    34    1
    12     5     6    1
    13     5     7    1
    14     5     9    1
    15     7     8    1
    16     7    35    1
    17     7    36    1
    18     8    37    1
    19     9    10   am
    20     9    38    1
    21    10    11    2
    22    10    12   am
    23    12    13    1
    24    12    39    1
    25    13    14    1
    26    13    40    1
    27    13    41    1
    28    14    27   ar
    29    14    15   ar
    30    15    16   ar
    31    15    42    1
    32    16    17   ar
    33    16    43    1
    34    17    18   ar
    35    17    44    1
    36    18    19    1
    37    18    27   ar
    38    19    20   am
    39    19    45    1
    40    20    21    2
    41    20    22    1
    42    22    23    1
    43    22    24    1
    44    22    25    1
    45    24    46    1
    46    24    47    1
    47    24    48    1
    48    25    26    1
    49    25    49    1
    50    25    50    1
    51    26    51    1
    52    26    52    1
    53    26    53    1
    54    27    54    1
@<TRIPOS>SUBSTRUCTURE
     1 ZINC000185598309        1 TEMP              0 ****  ****    0 ROOT


##########                                Name:    ZINC000062291520
##########                DOCK_Rotatable_Bonds:                  10
##########                         Heavy_Atoms:                  29
##########                    Molecular_Weight:             398.502
##########                DOCK_Rotatable_Bonds:                  10
##########                       Formal_Charge:          -0.0100006
##########                     HBond_Acceptors:                   6
##########                        HBond_Donors:                   1
##########                         Heavy_Atoms:                  29
##########                          Grid_Score:          -32.517483
##########                     Grid_vdw_energy:          -31.704527
##########                      Grid_es_energy:           -0.812957
##########           Internal_energy_repulsive:           15.240573

@<TRIPOS>MOLECULE
ZINC000062291520
 59 61 1 0 0
SMALL
USER_CHARGES


@<TRIPOS>ATOM
      1 C1         -8.9391    0.7553   62.6534 C.3     1  ZINC000062291520    0.0300
      2 O2        -10.1161    0.2924   61.9880 O.3     1  ZINC000062291520   -0.3100
      3 C3        -11.1216    1.1916   61.8153 C.ar    1  ZINC000062291520    0.1000
      4 C4        -10.9788    2.4898   62.2771 C.ar    1  ZINC000062291520   -0.1700
      5 C5        -12.0047    3.4013   62.1057 C.ar    1  ZINC000062291520   -0.1200
      6 C6        -13.1712    3.0218   61.4690 C.ar    1  ZINC000062291520   -0.1200
      7 C7        -13.3176    1.7291   61.0002 C.ar    1  ZINC000062291520   -0.1700
      8 C8        -12.2940    0.8111   61.1687 C.ar    1  ZINC000062291520    0.1000
      9 O9        -12.4364   -0.4605   60.7081 O.3     1  ZINC000062291520   -0.3100
     10 C10       -13.6691   -0.7818   60.0605 C.3     1  ZINC000062291520    0.0700
     11 C11       -13.6440   -2.2446   59.6130 C.3     1  ZINC000062291520   -0.1400
     12 C12       -12.6227   -2.4178   58.5185 C.2     1  ZINC000062291520    0.5200
     13 O13       -12.9080   -2.1386   57.3732 O.2     1  ZINC000062291520   -0.5400
     14 N14       -11.3924   -2.8829   58.8124 N.am    1  ZINC000062291520   -0.7200
     15 C15       -10.3989   -3.0495   57.7486 C.3     1  ZINC000062291520    0.1600
     16 C16        -9.7490   -1.7217   57.4558 C.ar    1  ZINC000062291520   -0.1100
     17 C17        -8.9235   -1.1341   58.3958 C.ar    1  ZINC000062291520   -0.1000
     18 C18        -8.3269    0.0838   58.1269 C.ar    1  ZINC000062291520   -0.1200
     19 C19        -8.5561    0.7138   56.9183 C.ar    1  ZINC000062291520   -0.0900
     20 C20        -9.3823    0.1263   55.9782 C.ar    1  ZINC000062291520   -0.0800
     21 C21        -9.6324    0.8134   54.6605 C.3     1  ZINC000062291520    0.0900
     22 N22        -8.5166    0.5389   53.7454 N.3     1  ZINC000062291520   -0.5300
     23 C23        -8.8676   -0.5222   52.7901 C.3     1  ZINC000062291520    0.0100
     24 C24        -7.6596   -0.8170   51.8969 C.3     1  ZINC000062291520    0.0600
     25 O25        -7.2515    0.3873   51.2426 O.3     1  ZINC000062291520   -0.3800
     26 C26        -6.9019    1.4418   52.1433 C.3     1  ZINC000062291520    0.0900
     27 H27        -6.0593    1.1293   52.7600 H       1  ZINC000062291520    0.0700
     28 C28        -6.5158    2.6886   51.3449 C.3     1  ZINC000062291520   -0.1500
     29 C29        -8.1021    1.7596   53.0390 C.3     1  ZINC000062291520    0.0200
     30 C30        -9.9741   -1.0941   56.2446 C.ar    1  ZINC000062291520   -0.0900
     31 H31        -8.5021    1.5784   62.0881 H       1  ZINC000062291520    0.0500
     32 H32        -9.1992    1.0996   63.6544 H       1  ZINC000062291520    0.0600
     33 H33        -8.2183   -0.0592   62.7253 H       1  ZINC000062291520    0.1000
     34 H34       -10.0684    2.7889   62.7749 H       1  ZINC000062291520    0.1400
     35 H35       -11.8938    4.4120   62.4698 H       1  ZINC000062291520    0.1300
     36 H36       -13.9700    3.7365   61.3371 H       1  ZINC000062291520    0.1300
     37 H37       -14.2300    1.4353   60.5024 H       1  ZINC000062291520    0.1400
     38 H38       -13.8011   -0.1380   59.1908 H       1  ZINC000062291520    0.0700
     39 H39       -14.4952   -0.6283   60.7549 H       1  ZINC000062291520    0.0700
     40 H40       -14.6283   -2.5272   59.2395 H       1  ZINC000062291520    0.1100
     41 H41       -13.3807   -2.8790   60.4593 H       1  ZINC000062291520    0.1100
     42 H42       -11.1646   -3.1072   59.7281 H       1  ZINC000062291520    0.4000
     43 H43        -9.6396   -3.7629   58.0691 H       1  ZINC000062291520    0.0800
     44 H44       -10.8891   -3.4204   56.8484 H       1  ZINC000062291520    0.0800
     45 H45        -8.7441   -1.6266   59.3400 H       1  ZINC000062291520    0.1200
     46 H46        -7.6815    0.5427   58.8613 H       1  ZINC000062291520    0.1300
     47 H47        -8.0900    1.6652   56.7084 H       1  ZINC000062291520    0.1200
     48 H48       -10.5594    0.4391   54.2259 H       1  ZINC000062291520    0.0500
     49 H49        -9.7147    1.8884   54.8212 H       1  ZINC000062291520    0.0900
     50 H50        -9.1466   -1.4243   53.3346 H       1  ZINC000062291520    0.0900
     51 H51        -9.7051   -0.1950   52.1743 H       1  ZINC000062291520    0.0400
     52 H52        -6.8395   -1.1956   52.5071 H       1  ZINC000062291520    0.0600
     53 H53        -7.9326   -1.5625   51.1501 H       1  ZINC000062291520    0.1000
     54 H54        -7.3592    3.0015   50.7295 H       1  ZINC000062291520    0.0600
     55 H55        -6.2494    3.4918   52.0318 H       1  ZINC000062291520    0.0700
     56 H56        -5.6636    2.4606   50.7045 H       1  ZINC000062291520    0.0700
     57 H57        -8.9270    2.1237   52.4265 H       1  ZINC000062291520    0.0400
     58 H58        -7.8225    2.5230   53.7649 H       1  ZINC000062291520    0.0900
     59 H59       -10.6156   -1.5552   55.5084 H       1  ZINC000062291520    0.1200
@<TRIPOS>BOND
     1     1     2    1
     2     1    31    1
     3     1    32    1
     4     1    33    1
     5     2     3    1
     6     3     8   ar
     7     3     4   ar
     8     4     5   ar
     9     4    34    1
    10     5     6   ar
    11     5    35    1
    12     6     7   ar
    13     6    36    1
    14     7     8   ar
    15     7    37    1
    16     8     9    1
    17     9    10    1
    18    10    11    1
    19    10    38    1
    20    10    39    1
    21    11    12    1
    22    11    40    1
    23    11    41    1
    24    12    13    2
    25    12    14   am
    26    14    15    1
    27    14    42    1
    28    15    16    1
    29    15    43    1
    30    15    44    1
    31    16    30   ar
    32    16    17   ar
    33    17    18   ar
    34    17    45    1
    35    18    19   ar
    36    18    46    1
    37    19    20   ar
    38    19    47    1
    39    20    21    1
    40    20    30   ar
    41    21    22    1
    42    21    48    1
    43    21    49    1
    44    22    29    1
    45    22    23    1
    46    23    24    1
    47    23    50    1
    48    23    51    1
    49    24    25    1
    50    24    52    1
    51    24    53    1
    52    25    26    1
    53    26    27    1
    54    26    28    1
    55    26    29    1
    56    28    54    1
    57    28    55    1
    58    28    56    1
    59    29    57    1
    60    29    58    1
    61    30    59    1
@<TRIPOS>SUBSTRUCTURE
     1 ZINC000062291520        1 TEMP              0 ****  ****    0 ROOT


##########                                Name:    ZINC000981700465
##########                DOCK_Rotatable_Bonds:                   9
##########                         Heavy_Atoms:                  26
##########                    Molecular_Weight:             356.428
##########                DOCK_Rotatable_Bonds:                   9
##########                       Formal_Charge:               -0.01
##########                     HBond_Acceptors:                   8
##########                        HBond_Donors:                   3
##########                         Heavy_Atoms:                  26
##########                          Grid_Score:          -32.505093
##########                     Grid_vdw_energy:          -30.483837
##########                      Grid_es_energy:           -2.021256
##########           Internal_energy_repulsive:           10.187543

@<TRIPOS>MOLECULE
ZINC000981700465
 50 52 1 0 0
SMALL
USER_CHARGES


@<TRIPOS>ATOM
      1 C1         -9.8594   -1.1699   53.4173 C.3     1  ZINC000981700465   -0.1500
      2 C2        -10.0794   -0.0503   54.4366 C.3     1  ZINC000981700465   -0.1100
      3 C3         -9.9241    1.3060   53.7459 C.3     1  ZINC000981700465   -0.0500
      4 C4         -8.4651    1.6798   53.6951 C.2     1  ZINC000981700465    0.1400
      5 N5         -7.7056    1.6623   52.6347 N.2     1  ZINC000981700465   -0.2900
      6 N6         -6.4174    2.0749   52.9929 N.pl3   1  ZINC000981700465   -0.4600
      7 C7         -6.4076    2.3472   54.3075 C.2     1  ZINC000981700465    0.1000
      8 C8         -7.6815    2.1166   54.7867 C.2     1  ZINC000981700465   -0.2900
      9 C9         -8.1367    2.2848   56.1789 C.2     1  ZINC000981700465    0.5900
     10 O10        -9.2206    2.7859   56.4079 O.2     1  ZINC000981700465   -0.5300
     11 N11        -7.3512    1.8828   57.1978 N.am    1  ZINC000981700465   -0.7300
     12 C12        -7.8027    2.0515   58.5812 C.3     1  ZINC000981700465    0.1300
     13 C13        -8.8741    1.0064   58.8990 C.3     1  ZINC000981700465   -0.1100
     14 H14        -9.5948    0.9404   58.0840 H       1  ZINC000981700465    0.0900
     15 C15        -8.2235   -0.3747   59.1606 C.3     1  ZINC000981700465   -0.1200
     16 C16        -9.2894   -1.0970   60.0214 C.3     1  ZINC000981700465   -0.1300
     17 C17        -9.8484    0.0099   60.9390 C.3     1  ZINC000981700465    0.1400
     18 H18       -10.9195   -0.1308   61.0841 H       1  ZINC000981700465    0.1000
     19 N19        -9.1597   -0.0147   62.2318 N.am    1  ZINC000981700465   -0.7100
     20 C20        -9.6778    0.6494   63.2840 C.2     1  ZINC000981700465    0.5600
     21 O21       -10.7153    1.2697   63.1599 O.2     1  ZINC000981700465   -0.5200
     22 C22        -8.9825    0.6231   64.5917 C.ar    1  ZINC000981700465   -0.1400
     23 C23        -9.0239    1.7242   65.4566 C.ar    1  ZINC000981700465   -0.0600
     24 C24        -8.3494    1.6248   66.6627 C.ar    1  ZINC000981700465    0.0400
     25 N25        -7.6971    0.5187   66.9635 N.ar    1  ZINC000981700465   -0.2200
     26 N26        -7.6552   -0.4931   66.1760 N.ar    1  ZINC000981700465   -0.2400
     27 C27        -8.2673   -0.5034   65.0078 C.ar    1  ZINC000981700465    0.0700
     28 C28        -9.5867    1.3493   60.2236 C.3     1  ZINC000981700465   -0.1200
     29 H29        -8.8563   -1.0881   52.9986 H       1  ZINC000981700465    0.0600
     30 H30        -9.9701   -2.1361   53.9094 H       1  ZINC000981700465    0.0600
     31 H31       -10.5950   -1.0830   52.6176 H       1  ZINC000981700465    0.0500
     32 H32       -11.0825   -0.1320   54.8552 H       1  ZINC000981700465    0.0600
     33 H33        -9.3438   -0.1371   55.2362 H       1  ZINC000981700465    0.0600
     34 H34       -10.3189    1.2447   52.7317 H       1  ZINC000981700465    0.1000
     35 H35       -10.4739    2.0634   54.3046 H       1  ZINC000981700465    0.0800
     36 H36        -5.6594    2.1515   52.3926 H       1  ZINC000981700465    0.4500
     37 H37        -5.5600    2.6883   54.8834 H       1  ZINC000981700465    0.1800
     38 H38        -6.4871    1.4820   57.0151 H       1  ZINC000981700465    0.4000
     39 H39        -6.9576    1.9227   59.2575 H       1  ZINC000981700465    0.0700
     40 H40        -8.2205    3.0502   58.7080 H       1  ZINC000981700465    0.0700
     41 H41        -8.0577   -0.9071   58.2241 H       1  ZINC000981700465    0.0700
     42 H42        -7.2908   -0.2637   59.7135 H       1  ZINC000981700465    0.0700
     43 H43       -10.0789   -1.5033   59.3892 H       1  ZINC000981700465    0.0800
     44 H44        -8.8292   -1.8877   60.6142 H       1  ZINC000981700465    0.0700
     45 H45        -8.3310   -0.5088   62.3307 H       1  ZINC000981700465    0.4000
     46 H46        -9.5635    2.6214   65.1917 H       1  ZINC000981700465    0.1700
     47 H47        -8.3576    2.4527   67.3562 H       1  ZINC000981700465    0.1800
     48 H48        -8.2093   -1.3746   64.3722 H       1  ZINC000981700465    0.1700
     49 H49        -8.9456    1.9816   60.8377 H       1  ZINC000981700465    0.0800
     50 H50       -10.5306    1.8563   60.0234 H       1  ZINC000981700465    0.0800
@<TRIPOS>BOND
     1     1     2    1
     2     1    29    1
     3     1    30    1
     4     1    31    1
     5     2     3    1
     6     2    32    1
     7     2    33    1
     8     3     4    1
     9     3    34    1
    10     3    35    1
    11     4     8    1
    12     4     5    2
    13     5     6    1
    14     6     7    1
    15     6    36    1
    16     7     8    2
    17     7    37    1
    18     8     9    1
    19     9    10    2
    20     9    11   am
    21    11    12    1
    22    11    38    1
    23    12    13    1
    24    12    39    1
    25    12    40    1
    26    13    14    1
    27    13    28    1
    28    13    15    1
    29    15    16    1
    30    15    41    1
    31    15    42    1
    32    16    17    1
    33    16    43    1
    34    16    44    1
    35    17    18    1
    36    17    19    1
    37    17    28    1
    38    19    20   am
    39    19    45    1
    40    20    21    2
    41    20    22    1
    42    22    27   ar
    43    22    23   ar
    44    23    24   ar
    45    23    46    1
    46    24    25   ar
    47    24    47    1
    48    25    26   ar
    49    26    27   ar
    50    27    48    1
    51    28    49    1
    52    28    50    1
@<TRIPOS>SUBSTRUCTURE
     1 ZINC000981700465        1 TEMP              0 ****  ****    0 ROOT


##########                                Name:    ZINC000284209281
##########                DOCK_Rotatable_Bonds:                   8
##########                         Heavy_Atoms:                  26
##########                    Molecular_Weight:             353.424
##########                DOCK_Rotatable_Bonds:                   8
##########                       Formal_Charge:          0.00999954
##########                     HBond_Acceptors:                   7
##########                        HBond_Donors:                   1
##########                         Heavy_Atoms:                  26
##########                          Grid_Score:          -32.467819
##########                     Grid_vdw_energy:          -32.551796
##########                      Grid_es_energy:            0.083975
##########           Internal_energy_repulsive:           10.705652

@<TRIPOS>MOLECULE
ZINC000284209281
 49 51 1 0 0
SMALL
USER_CHARGES


@<TRIPOS>ATOM
      1 O1        -11.2549   -4.1218   57.6953 O.2     1  <0>        -0.5100
      2 C2        -11.4209   -2.9627   57.3769 C.2     1  <0>         0.5100
      3 N3        -12.6650   -2.4990   57.1453 N.am    1  <0>        -0.7000
      4 C4        -13.8163   -3.3959   57.2719 C.3     1  <0>         0.1200
      5 C5        -15.0919   -2.5678   57.4401 C.3     1  <0>        -0.1000
      6 C6        -15.0594   -1.8599   58.7700 C.ar    1  <0>        -0.0400
      7 C7        -14.8262   -2.5624   59.9425 C.ar    1  <0>        -0.1700
      8 C8        -14.8037   -1.8794   61.1437 C.ar    1  <0>         0.1000
      9 N9        -15.0011   -0.5762   61.1824 N.ar    1  <0>        -0.4900
     10 C10       -15.2256    0.1240   60.0877 C.ar    1  <0>         0.1000
     11 C11       -15.2563   -0.4898   58.8498 C.ar    1  <0>        -0.1700
     12 C12       -10.2463   -2.0477   57.2478 C.2     1  <0>         0.5100
     13 O13        -9.7994   -1.7851   56.1506 O.2     1  <0>        -0.5200
     14 N14        -9.6832   -1.5143   58.3501 N.am    1  <0>        -0.5800
     15 C15        -8.5305   -0.6070   58.2452 C.3     1  <0>         0.0800
     16 C16        -8.8353    0.6621   59.0482 C.3     1  <0>         0.0400
     17 N17        -9.2115    0.2918   60.4191 N.3     1  <0>        -0.5300
     18 C18        -9.3448    1.4829   61.2684 C.3     1  <0>         0.1000
     19 C19        -9.0854    1.1073   62.7046 C.ar    1  <0>         0.1300
     20 C20        -9.6241    1.8753   63.7193 C.ar    1  <0>        -0.1500
     21 C21        -9.3798    1.5208   65.0375 C.ar    1  <0>        -0.0700
     22 C22        -8.5994    0.4024   65.2862 C.ar    1  <0>        -0.1700
     23 C23        -8.0942   -0.3172   64.2196 C.ar    1  <0>         0.1000
     24 N24        -8.3514    0.0465   62.9785 N.ar    1  <0>        -0.4800
     25 C25       -10.4440   -0.5074   60.4359 C.3     1  <0>         0.0400
     26 C26       -10.2089   -1.8195   59.6894 C.3     1  <0>         0.1100
     27 H27       -12.7980   -1.5714   56.8948 H       1  <0>         0.4100
     28 H28       -13.8980   -4.0110   56.3757 H       1  <0>         0.0800
     29 H29       -13.6826   -4.0382   58.1423 H       1  <0>         0.0800
     30 H30       -15.1558   -1.8321   56.6384 H       1  <0>         0.0900
     31 H31       -15.9601   -3.2257   57.3997 H       1  <0>         0.0900
     32 H32       -14.6646   -3.6300   59.9174 H       1  <0>         0.1400
     33 H33       -14.6227   -2.4192   62.0614 H       1  <0>         0.1600
     34 H34       -15.3832    1.1901   60.1590 H       1  <0>         0.1600
     35 H35       -15.4403    0.0891   57.9569 H       1  <0>         0.1400
     36 H36        -7.6436   -1.0932   58.6515 H       1  <0>         0.0800
     37 H37        -8.3627   -0.3474   57.1999 H       1  <0>         0.1400
     38 H38        -7.9504    1.2981   59.0731 H       1  <0>         0.0900
     39 H39        -9.6580    1.2011   58.5783 H       1  <0>         0.0400
     40 H40        -8.6226    2.2363   60.9536 H       1  <0>         0.0900
     41 H41       -10.3536    1.8850   61.1745 H       1  <0>         0.0600
     42 H42       -10.2275    2.7408   63.4886 H       1  <0>         0.1400
     43 H43        -9.7875    2.1025   65.8510 H       1  <0>         0.1400
     44 H44        -8.3884    0.0974   66.3005 H       1  <0>         0.1400
     45 H45        -7.4851   -1.1895   64.4049 H       1  <0>         0.1600
     46 H46       -10.7258   -0.7196   61.4672 H       1  <0>         0.1000
     47 H47       -11.2443    0.0479   59.9466 H       1  <0>         0.0400
     48 H48       -11.1493   -2.3635   59.6002 H       1  <0>         0.1000
     49 H49        -9.4828   -2.4246   60.2321 H       1  <0>         0.0800
@<TRIPOS>BOND
     1     1     2    2
     2     2     3   am
     3     2    12    1
     4     3     4    1
     5     3    27    1
     6     4     5    1
     7     4    28    1
     8     4    29    1
     9     5     6    1
    10     5    30    1
    11     5    31    1
    12     6    11   ar
    13     6     7   ar
    14     7     8   ar
    15     7    32    1
    16     8     9   ar
    17     8    33    1
    18     9    10   ar
    19    10    11   ar
    20    10    34    1
    21    11    35    1
    22    12    13    2
    23    12    14   am
    24    14    26    1
    25    14    15    1
    26    15    16    1
    27    15    36    1
    28    15    37    1
    29    16    17    1
    30    16    38    1
    31    16    39    1
    32    17    18    1
    33    17    25    1
    34    18    19    1
    35    18    40    1
    36    18    41    1
    37    19    24   ar
    38    19    20   ar
    39    20    21   ar
    40    20    42    1
    41    21    22   ar
    42    21    43    1
    43    22    23   ar
    44    22    44    1
    45    23    24   ar
    46    23    45    1
    47    25    26    1
    48    25    46    1
    49    25    47    1
    50    26    48    1
    51    26    49    1
@<TRIPOS>SUBSTRUCTURE
     1 <0>         1 TEMP              0 ****  ****    0 ROOT


##########                                Name:    ZINC000824084043
##########                DOCK_Rotatable_Bonds:                  11
##########                         Heavy_Atoms:                  27
##########                    Molecular_Weight:             382.547
##########                DOCK_Rotatable_Bonds:                  11
##########                       Formal_Charge:        -6.85453e-07
##########                     HBond_Acceptors:                   7
##########                        HBond_Donors:                   3
##########                         Heavy_Atoms:                  27
##########                          Grid_Score:          -32.383320
##########                     Grid_vdw_energy:          -26.033686
##########                      Grid_es_energy:           -6.349634
##########           Internal_energy_repulsive:           29.303183

@<TRIPOS>MOLECULE
ZINC000824084043
 65 66 1 0 0
SMALL
USER_CHARGES


@<TRIPOS>ATOM
      1 C1        -15.2322   -3.5219   59.4718 C.3     1  ZINC000824084043   -0.1400
      2 C2        -14.0512   -2.6154   59.1190 C.3     1  ZINC000824084043   -0.1000
      3 C3        -13.9677   -2.4548   57.5997 C.3     1  ZINC000824084043   -0.1300
      4 C4        -14.2498   -1.2436   59.7667 C.3     1  ZINC000824084043    0.1700
      5 H5        -14.3120   -1.3583   60.8488 H       1  ZINC000824084043    0.0700
      6 C6        -13.0671   -0.3383   59.4169 C.3     1  ZINC000824084043   -0.1400
      7 C7        -11.7675   -0.9900   59.8938 C.3     1  ZINC000824084043    0.1300
      8 N8        -10.6873   -0.0006   59.8688 N.am    1  ZINC000824084043   -0.6200
      9 C9        -10.2979    0.6900   61.1008 C.3     1  ZINC000824084043    0.0800
     10 C10       -10.0518    0.2741   58.7126 C.2     1  ZINC000824084043    0.7000
     11 O11       -10.3758   -0.2979   57.6898 O.2     1  ZINC000824084043   -0.5800
     12 N12        -9.0569    1.1831   58.6899 N.am    1  ZINC000824084043   -0.7500
     13 C13        -8.3672    1.4832   57.4328 C.3     1  ZINC000824084043    0.1600
     14 C14        -9.2895    2.3029   56.5258 C.3     1  ZINC000824084043   -0.1600
     15 C15        -8.5359    2.6803   55.2486 C.3     1  ZINC000824084043   -0.0100
     16 N16        -7.3514    3.4762   55.5921 N.4     1  ZINC000824084043   -0.3800
     17 H17        -7.6351    4.2907   56.1159 H       1  ZINC000824084043    0.4200
     18 C18        -6.6737    3.9001   54.3596 C.3     1  ZINC000824084043    0.0000
     19 C19        -6.4144    2.6793   53.4745 C.3     1  ZINC000824084043   -0.1200
     20 C20        -7.4539    2.6101   52.3284 C.3     1  ZINC000824084043   -0.1400
     21 C21        -6.7234    1.7657   51.2550 C.3     1  ZINC000824084043   -0.1200
     22 C22        -5.2563    2.2356   51.3377 C.3     1  ZINC000824084043   -0.1300
     23 C23        -5.0598    2.8165   52.7490 C.3     1  ZINC000824084043   -0.1100
     24 C24        -6.4288    2.6721   56.4025 C.3     1  ZINC000824084043    0.0000
     25 C25        -7.1014    2.2944   57.7241 C.3     1  ZINC000824084043   -0.1600
     26 N26       -15.4892   -0.6427   59.2674 N.am    1  ZINC000824084043   -0.7800
     27 C27       -16.2133    0.1683   60.0638 C.2     1  ZINC000824084043    0.6600
     28 O28       -17.2472    0.6712   59.6466 O.co2   1  ZINC000824084043   -0.7200
     29 O29       -15.8365    0.4014   61.2039 O.co2   1  ZINC000824084043   -0.7300
     30 H30       -15.0907   -4.4991   59.0103 H       1  ZINC000824084043    0.0500
     31 H31       -15.2917   -3.6363   60.5541 H       1  ZINC000824084043    0.0500
     32 H32       -16.1555   -3.0758   59.1023 H       1  ZINC000824084043    0.0500
     33 H33       -13.1277   -3.0614   59.4885 H       1  ZINC000824084043    0.0500
     34 H34       -14.8910   -2.0088   57.2302 H       1  ZINC000824084043    0.0600
     35 H35       -13.1262   -1.8091   57.3484 H       1  ZINC000824084043    0.0700
     36 H36       -13.8261   -3.4321   57.1383 H       1  ZINC000824084043    0.0300
     37 H37       -13.0265   -0.1944   58.3372 H       1  ZINC000824084043    0.0700
     38 H38       -13.1908    0.6270   59.9077 H       1  ZINC000824084043    0.0600
     39 H39       -11.8982   -1.3596   60.9108 H       1  ZINC000824084043    0.0900
     40 H40       -11.5146   -1.8207   59.2349 H       1  ZINC000824084043    0.0900
     41 H41        -9.5180    0.1201   61.6058 H       1  ZINC000824084043    0.0600
     42 H42        -9.9220    1.6836   60.8570 H       1  ZINC000824084043    0.0600
     43 H43       -11.1643    0.7800   61.7561 H       1  ZINC000824084043    0.0800
     44 H44        -8.7976    1.6387   59.5062 H       1  ZINC000824084043    0.4000
     45 H45        -8.0970    0.5524   56.9342 H       1  ZINC000824084043    0.1100
     46 H46       -10.1676    1.7104   56.2687 H       1  ZINC000824084043    0.1200
     47 H47        -9.6004    3.2088   57.0461 H       1  ZINC000824084043    0.0900
     48 H48        -8.2257    1.7738   54.7290 H       1  ZINC000824084043    0.1300
     49 H49        -9.1897    3.2639   54.6004 H       1  ZINC000824084043    0.1300
     50 H50        -7.3042    4.6099   53.8240 H       1  ZINC000824084043    0.1300
     51 H51        -5.7252    4.3746   54.6113 H       1  ZINC000824084043    0.1300
     52 H52        -6.4379    1.7662   54.0693 H       1  ZINC000824084043    0.1000
     53 H53        -8.3630    2.1092   52.6612 H       1  ZINC000824084043    0.0700
     54 H54        -7.6776    3.6072   51.9490 H       1  ZINC000824084043    0.0800
     55 H55        -6.7977    0.7038   51.4893 H       1  ZINC000824084043    0.0700
     56 H56        -7.1336    1.9686   50.2657 H       1  ZINC000824084043    0.0800
     57 H57        -4.5846    1.3909   51.1848 H       1  ZINC000824084043    0.0700
     58 H58        -5.0675    3.0039   50.5881 H       1  ZINC000824084043    0.0700
     59 H59        -4.7757    3.8668   52.6842 H       1  ZINC000824084043    0.0700
     60 H60        -4.2928    2.2538   53.2809 H       1  ZINC000824084043    0.0800
     61 H61        -6.1635    1.7657   55.8583 H       1  ZINC000824084043    0.1300
     62 H62        -5.5271    3.2495   56.6062 H       1  ZINC000824084043    0.1300
     63 H63        -7.3668    3.2001   58.2692 H       1  ZINC000824084043    0.0900
     64 H64        -6.4154    1.6958   58.3235 H       1  ZINC000824084043    0.1200
     65 H65       -15.7886   -0.8287   58.3637 H       1  ZINC000824084043    0.3600
@<TRIPOS>BOND
     1     1     2    1
     2     1    30    1
     3     1    31    1
     4     1    32    1
     5     2     3    1
     6     2     4    1
     7     2    33    1
     8     3    34    1
     9     3    35    1
    10     3    36    1
    11     4     5    1
    12     4     6    1
    13     4    26    1
    14     6     7    1
    15     6    37    1
    16     6    38    1
    17     7     8    1
    18     7    39    1
    19     7    40    1
    20     8     9    1
    21     8    10   am
    22     9    41    1
    23     9    42    1
    24     9    43    1
    25    10    11    2
    26    10    12   am
    27    12    13    1
    28    12    44    1
    29    13    25    1
    30    13    14    1
    31    13    45    1
    32    14    15    1
    33    14    46    1
    34    14    47    1
    35    15    16    1
    36    15    48    1
    37    15    49    1
    38    16    17    1
    39    16    18    1
    40    16    24    1
    41    18    19    1
    42    18    50    1
    43    18    51    1
    44    19    23    1
    45    19    20    1
    46    19    52    1
    47    20    21    1
    48    20    53    1
    49    20    54    1
    50    21    22    1
    51    21    55    1
    52    21    56    1
    53    22    23    1
    54    22    57    1
    55    22    58    1
    56    23    59    1
    57    23    60    1
    58    24    25    1
    59    24    61    1
    60    24    62    1
    61    25    63    1
    62    25    64    1
    63    26    27   am
    64    26    65    1
    65    27    28   ar
    66    27    29   ar
@<TRIPOS>SUBSTRUCTURE
     1 ZINC000824084043        1 TEMP              0 ****  ****    0 ROOT


##########                                Name:    ZINC001109082135
##########                DOCK_Rotatable_Bonds:                   9
##########                         Heavy_Atoms:                  27
##########                    Molecular_Weight:             373.455
##########                DOCK_Rotatable_Bonds:                   9
##########                       Formal_Charge:          -0.0100003
##########                     HBond_Acceptors:                   8
##########                        HBond_Donors:                   3
##########                         Heavy_Atoms:                  27
##########                          Grid_Score:          -32.333313
##########                     Grid_vdw_energy:          -32.389511
##########                      Grid_es_energy:            0.056196
##########           Internal_energy_repulsive:           22.417103

@<TRIPOS>MOLECULE
ZINC001109082135
 54 57 1 0 0
SMALL
USER_CHARGES


@<TRIPOS>ATOM
      1 C1         -9.9726    2.4662   66.2442 C.3     1  ZINC001109082135   -0.1400
      2 C2         -9.1373    1.3453   66.8662 C.3     1  ZINC001109082135   -0.1400
      3 C3         -8.4429    0.5717   65.7751 C.2     1  ZINC001109082135    0.5100
      4 O4         -7.3733    0.0431   65.9931 O.2     1  ZINC001109082135   -0.5400
      5 N5         -9.0104    0.4672   64.5571 N.am    1  ZINC001109082135   -0.7200
      6 C6         -8.3345   -0.2833   63.4959 C.3     1  ZINC001109082135    0.1000
      7 C7         -8.7364    0.2718   62.1538 C.2     1  ZINC001109082135    0.5100
      8 O8         -9.0926    1.4272   62.0574 O.2     1  ZINC001109082135   -0.5300
      9 N9         -8.7002   -0.5156   61.0606 N.am    1  ZINC001109082135   -0.7100
     10 C10        -9.0893    0.0246   59.7556 C.3     1  ZINC001109082135    0.1100
     11 H11        -8.8755    1.0922   59.7044 H       1  ZINC001109082135    0.0900
     12 C12        -8.3652   -0.7316   58.6149 C.3     1  ZINC001109082135   -0.1600
     13 C13        -9.5326   -1.3628   57.7977 C.3     1  ZINC001109082135    0.0600
     14 H14        -9.2942   -1.6345   56.7693 H       1  ZINC001109082135    0.1300
     15 C15       -10.0723   -2.5197   58.6916 C.3     1  ZINC001109082135   -0.1200
     16 C16       -10.7955   -1.7799   59.8436 C.3     1  ZINC001109082135   -0.1100
     17 C17       -10.5984   -0.2469   59.4772 C.3     1  ZINC001109082135    0.0400
     18 H18       -11.3089    0.4414   59.9348 H       1  ZINC001109082135    0.1200
     19 N19       -10.6033   -0.3172   57.9703 N.3     1  ZINC001109082135   -0.4800
     20 C20       -10.2029    0.9680   57.3821 C.3     1  ZINC001109082135    0.0800
     21 C21       -10.0227    0.8052   55.8947 C.2     1  ZINC001109082135    0.2000
     22 C22       -11.0788    0.4413   55.1156 C.2     1  ZINC001109082135   -0.2900
     23 C23       -10.8758    0.2983   53.7274 C.2     1  ZINC001109082135    0.5200
     24 O24       -11.7948   -0.0256   52.9936 O.2     1  ZINC001109082135   -0.5400
     25 N25        -9.6427    0.5282   53.2278 N.am    1  ZINC001109082135   -0.6300
     26 C26        -8.6392    0.8858   54.0530 C.2     1  ZINC001109082135    0.4300
     27 C27        -7.2687    1.1388   53.4794 C.3     1  ZINC001109082135   -0.1400
     28 C28        -6.9040    0.4207   52.1785 C.3     1  ZINC001109082135   -0.1400
     29 C29        -7.1855    1.9246   52.1693 C.3     1  ZINC001109082135   -0.1400
     30 N30        -8.8286    1.0231   55.3382 N.2     1  ZINC001109082135   -0.5300
     31 H31       -10.7166    2.0358   65.5739 H       1  ZINC001109082135    0.0600
     32 H32       -10.4748    3.0257   67.0333 H       1  ZINC001109082135    0.0600
     33 H33        -9.3213    3.1356   65.6823 H       1  ZINC001109082135    0.0600
     34 H34        -8.3933    1.7757   67.5365 H       1  ZINC001109082135    0.1000
     35 H35        -9.7886    0.6758   67.4281 H       1  ZINC001109082135    0.1000
     36 H36        -9.8665    0.8890   64.3832 H       1  ZINC001109082135    0.4100
     37 H37        -7.2551   -0.1930   63.6180 H       1  ZINC001109082135    0.1000
     38 H38        -8.6203   -1.3335   63.5551 H       1  ZINC001109082135    0.1000
     39 H39        -8.4165   -1.4399   61.1380 H       1  ZINC001109082135    0.4000
     40 H40        -7.7948   -0.0385   57.9965 H       1  ZINC001109082135    0.0800
     41 H41        -7.7168   -1.5083   59.0204 H       1  ZINC001109082135    0.0800
     42 H42       -10.7739   -3.1401   58.1339 H       1  ZINC001109082135    0.0700
     43 H43        -9.2499   -3.1214   59.0785 H       1  ZINC001109082135    0.0700
     44 H44       -11.8554   -2.0337   59.8570 H       1  ZINC001109082135    0.0700
     45 H45       -10.3314   -2.0148   60.8016 H       1  ZINC001109082135    0.0700
     46 H46       -10.9754    1.7123   57.5751 H       1  ZINC001109082135    0.1000
     47 H47        -9.2637    1.2949   57.8283 H       1  ZINC001109082135    0.0700
     48 H48       -12.0511    0.2655   55.5517 H       1  ZINC001109082135    0.1600
     49 H49        -9.4793    0.4358   52.2761 H       1  ZINC001109082135    0.4200
     50 H50        -6.4744    1.2922   54.2097 H       1  ZINC001109082135    0.1300
     51 H51        -5.8693    0.1016   52.0528 H       1  ZINC001109082135    0.1100
     52 H52        -7.6552   -0.2346   51.7376 H       1  ZINC001109082135    0.1100
     53 H53        -8.1218    2.2587   51.7223 H       1  ZINC001109082135    0.1100
     54 H54        -6.3360    2.5948   52.0376 H       1  ZINC001109082135    0.1100
@<TRIPOS>BOND
     1     1     2    1
     2     1    31    1
     3     1    32    1
     4     1    33    1
     5     2     3    1
     6     2    34    1
     7     2    35    1
     8     3     4    2
     9     3     5   am
    10     5     6    1
    11     5    36    1
    12     6     7    1
    13     6    37    1
    14     6    38    1
    15     7     8    2
    16     7     9   am
    17     9    10    1
    18     9    39    1
    19    10    11    1
    20    10    17    1
    21    10    12    1
    22    12    13    1
    23    12    40    1
    24    12    41    1
    25    13    14    1
    26    13    19    1
    27    13    15    1
    28    15    16    1
    29    15    42    1
    30    15    43    1
    31    16    17    1
    32    16    44    1
    33    16    45    1
    34    17    18    1
    35    17    19    1
    36    19    20    1
    37    20    21    1
    38    20    46    1
    39    20    47    1
    40    21    30    1
    41    21    22    2
    42    22    23    1
    43    22    48    1
    44    23    24    2
    45    23    25   am
    46    25    26    1
    47    25    49    1
    48    26    27    1
    49    26    30    2
    50    27    29    1
    51    27    28    1
    52    27    50    1
    53    28    29    1
    54    28    51    1
    55    28    52    1
    56    29    53    1
    57    29    54    1
@<TRIPOS>SUBSTRUCTURE
     1 ZINC001109082135        1 TEMP              0 ****  ****    0 ROOT


##########                                Name:    ZINC001078748831
##########                DOCK_Rotatable_Bonds:                   6
##########                         Heavy_Atoms:                  23
##########                    Molecular_Weight:             333.417
##########                DOCK_Rotatable_Bonds:                   6
##########                       Formal_Charge:           0.0299999
##########                     HBond_Acceptors:                   9
##########                        HBond_Donors:                   2
##########                         Heavy_Atoms:                  23
##########                          Grid_Score:          -32.310665
##########                     Grid_vdw_energy:          -31.428482
##########                      Grid_es_energy:           -0.882183
##########           Internal_energy_repulsive:            6.854347

@<TRIPOS>MOLECULE
ZINC001078748831
 42 45 1 0 0
SMALL
USER_CHARGES


@<TRIPOS>ATOM
      1 C1         -6.9740    1.3438   52.8037 C.3     1  ZINC001078748831    0.1000
      2 N2         -8.0402    0.4585   53.2788 N.pl3   1  ZINC001078748831   -0.1400
      3 N3         -8.6303   -0.4231   52.5534 N.2     1  ZINC001078748831   -0.2900
      4 C4         -9.5299   -1.0424   53.2792 C.2     1  ZINC001078748831    0.0400
      5 C5         -9.4554   -0.4604   54.5604 C.2     1  ZINC001078748831   -0.0500
      6 C6        -10.2643   -0.8060   55.7482 C.2     1  ZINC001078748831    0.6200
      7 O7        -11.1633   -1.6190   55.6556 O.2     1  ZINC001078748831   -0.5200
      8 N8        -10.0050   -0.2199   56.9338 N.am    1  ZINC001078748831   -0.7000
      9 C9        -10.8080   -0.5613   58.1108 C.3     1  ZINC001078748831    0.1500
     10 H10       -11.8489   -0.7735   57.8668 H       1  ZINC001078748831    0.1100
     11 C11       -10.6362    0.4225   59.2824 C.3     1  ZINC001078748831   -0.1800
     12 C12        -9.4801   -0.4708   59.7675 C.3     1  ZINC001078748831    0.0800
     13 H13        -8.5095   -0.1914   59.3576 H       1  ZINC001078748831    0.1000
     14 N14        -9.4520   -0.6595   61.2241 N.3     1  ZINC001078748831   -0.6700
     15 C15        -9.4231    0.6329   61.9219 C.3     1  ZINC001078748831    0.1400
     16 C16        -9.0060    0.4211   63.3545 C.2     1  ZINC001078748831    0.0600
     17 N17        -9.4745    1.1101   64.3577 N.2     1  ZINC001078748831   -0.5700
     18 S18        -8.8014    0.5937   65.6669 S.3     1  ZINC001078748831    0.6800
     19 N19        -7.8939   -0.5131   65.0463 N.2     1  ZINC001078748831   -0.5700
     20 C20        -8.0878   -0.5291   63.7567 C.2     1  ZINC001078748831    0.0500
     21 C21       -10.1611   -1.6152   59.0102 C.3     1  ZINC001078748831   -0.1000
     22 C22       -11.0065   -2.6566   59.7444 C.3     1  ZINC001078748831   -0.1000
     23 C23       -10.5943   -3.6444   58.6378 C.3     1  ZINC001078748831   -0.1400
     24 C24        -9.3475   -2.7680   58.4209 C.3     1  ZINC001078748831   -0.1200
     25 N25        -8.5047    0.4579   54.4779 N.2     1  ZINC001078748831   -0.2500
     26 H26        -6.0076    0.8636   52.9573 H       1  ZINC001078748831    0.1000
     27 H27        -7.1150    1.5449   51.7417 H       1  ZINC001078748831    0.1100
     28 H28        -7.0061    2.2815   53.3584 H       1  ZINC001078748831    0.1100
     29 H29       -10.1915   -1.8344   52.9607 H       1  ZINC001078748831    0.2100
     30 H30        -9.2870    0.4279   57.0079 H       1  ZINC001078748831    0.4100
     31 H31       -10.3177    1.4180   58.9728 H       1  ZINC001078748831    0.0700
     32 H32       -11.4871    0.4425   59.9633 H       1  ZINC001078748831    0.1000
     33 H33       -10.2335   -1.2189   61.5314 H       1  ZINC001078748831    0.3500
     34 H34        -8.7108    1.2954   61.4302 H       1  ZINC001078748831    0.1000
     35 H35       -10.4157    1.0826   61.8952 H       1  ZINC001078748831    0.0600
     36 H36        -7.5838   -1.2037   63.0804 H       1  ZINC001078748831    0.2000
     37 H37       -10.6205   -2.9175   60.7298 H       1  ZINC001078748831    0.1000
     38 H38       -12.0722   -2.4283   59.7522 H       1  ZINC001078748831    0.0700
     39 H39       -10.3658   -4.6437   59.0084 H       1  ZINC001078748831    0.0700
     40 H40       -11.2744   -3.6537   57.7861 H       1  ZINC001078748831    0.0800
     41 H41        -9.0879   -2.6285   57.3714 H       1  ZINC001078748831    0.0700
     42 H42        -8.4951   -3.0602   59.0343 H       1  ZINC001078748831    0.0900
@<TRIPOS>BOND
     1     1     2    1
     2     1    26    1
     3     1    27    1
     4     1    28    1
     5     2    25    1
     6     2     3    1
     7     3     4    2
     8     4     5    1
     9     4    29    1
    10     5     6    1
    11     5    25    2
    12     6     7    2
    13     6     8   am
    14     8     9    1
    15     8    30    1
    16     9    10    1
    17     9    21    1
    18     9    11    1
    19    11    12    1
    20    11    31    1
    21    11    32    1
    22    12    13    1
    23    12    14    1
    24    12    21    1
    25    14    15    1
    26    14    33    1
    27    15    16    1
    28    15    34    1
    29    15    35    1
    30    16    20    1
    31    16    17    2
    32    17    18    1
    33    18    19    1
    34    19    20    2
    35    20    36    1
    36    21    24    1
    37    21    22    1
    38    22    23    1
    39    22    37    1
    40    22    38    1
    41    23    24    1
    42    23    39    1
    43    23    40    1
    44    24    41    1
    45    24    42    1
@<TRIPOS>SUBSTRUCTURE
     1 ZINC001078748831        1 TEMP              0 ****  ****    0 ROOT


##########                                Name:    ZINC000826435081
##########                DOCK_Rotatable_Bonds:                   7
##########                         Heavy_Atoms:                  28
##########                    Molecular_Weight:             388.361
##########                DOCK_Rotatable_Bonds:                   7
##########                       Formal_Charge:           0.0099996
##########                     HBond_Acceptors:                  12
##########                        HBond_Donors:                   3
##########                         Heavy_Atoms:                  28
##########                          Grid_Score:          -32.251675
##########                     Grid_vdw_energy:          -31.558146
##########                      Grid_es_energy:           -0.693528
##########           Internal_energy_repulsive:            7.584029

@<TRIPOS>MOLECULE
ZINC000826435081
 45 48 1 0 0
SMALL
USER_CHARGES


@<TRIPOS>ATOM
      1 O1         -9.7734   -1.1476   56.6060 O.2     1  ZINC000826435081   -0.5700
      2 C2         -9.5076   -1.0128   57.7849 C.2     1  ZINC000826435081    0.7200
      3 N3         -9.9044   -1.9429   58.6759 N.am    1  ZINC000826435081   -0.7300
      4 C4        -10.6613   -3.1133   58.2250 C.3     1  ZINC000826435081    0.1500
      5 C5        -12.1484   -2.7616   58.1512 C.3     1  ZINC000826435081    0.0400
      6 H6        -12.2911   -1.9232   57.4693 H       1  ZINC000826435081    0.0800
      7 C7        -12.6539   -2.3791   59.5453 C.3     1  ZINC000826435081    0.0300
      8 O8        -14.0667   -2.1604   59.4887 O.3     1  ZINC000826435081   -0.3800
      9 C9        -14.8030   -3.2928   59.0169 C.3     1  ZINC000826435081    0.0200
     10 C10       -14.2976   -3.6753   57.6227 C.3     1  ZINC000826435081    0.0200
     11 O11       -12.8846   -3.8934   57.6778 O.3     1  ZINC000826435081   -0.3700
     12 N12        -8.8113    0.0641   58.1997 N.am    1  ZINC000826435081   -0.6400
     13 C13        -8.3988    1.0311   57.2734 C.2     1  ZINC000826435081    0.3300
     14 N14        -7.6147    0.8233   56.2419 N.2     1  ZINC000826435081   -0.2800
     15 N15        -7.4449    2.0401   55.5689 N.pl3   1  ZINC000826435081   -0.3300
     16 C16        -6.6784    2.2432   54.4158 C.ar    1  ZINC000826435081    0.2200
     17 C17        -5.5123    2.9913   54.4781 C.ar    1  ZINC000826435081   -0.1300
     18 C18        -4.7557    3.1917   53.3392 C.ar    1  ZINC000826435081   -0.0500
     19 C19        -5.1548    2.6493   52.1310 C.ar    1  ZINC000826435081   -0.1500
     20 C20        -6.3152    1.9010   52.0529 C.ar    1  ZINC000826435081    0.1500
     21 F21        -6.7013    1.3726   50.8711 F       1  ZINC000826435081   -0.1100
     22 C22        -7.0827    1.6875   53.1972 C.ar    1  ZINC000826435081   -0.0500
     23 C23        -8.3285    0.8857   53.1204 C.2     1  ZINC000826435081    0.2100
     24 N24        -9.5483    1.3431   52.9170 N.2     1  ZINC000826435081   -0.2800
     25 N25       -10.3522    0.3359   52.9179 N.pl3   1  ZINC000826435081   -0.2300
     26 N26        -9.6812   -0.7447   53.1152 N.2     1  ZINC000826435081   -0.0500
     27 N27        -8.4325   -0.4459   53.2383 N.2     1  ZINC000826435081   -0.2300
     28 C28        -8.1555    2.9878   56.2331 C.2     1  ZINC000826435081    0.0700
     29 C29        -8.7581    2.3890   57.2853 C.2     1  ZINC000826435081   -0.2400
     30 H30        -9.6888   -1.8373   59.6158 H       1  ZINC000826435081    0.4000
     31 H31       -10.3099   -3.4153   57.2383 H       1  ZINC000826435081    0.0800
     32 H32       -10.5163   -3.9330   58.9288 H       1  ZINC000826435081    0.0900
     33 H33       -12.4380   -3.1863   60.2451 H       1  ZINC000826435081    0.0700
     34 H34       -12.1570   -1.4669   59.8753 H       1  ZINC000826435081    0.1100
     35 H35       -14.6593   -4.1308   59.6988 H       1  ZINC000826435081    0.0600
     36 H36       -15.8625   -3.0422   58.9641 H       1  ZINC000826435081    0.1100
     37 H37       -14.7945   -4.5875   57.2926 H       1  ZINC000826435081    0.1100
     38 H38       -14.5135   -2.8681   56.9228 H       1  ZINC000826435081    0.0600
     39 H39        -8.5958    0.1697   59.1395 H       1  ZINC000826435081    0.4100
     40 H40        -5.1952    3.4182   55.4181 H       1  ZINC000826435081    0.1500
     41 H41        -3.8483    3.7750   53.3927 H       1  ZINC000826435081    0.1500
     42 H42        -4.5582    2.8112   51.2453 H       1  ZINC000826435081    0.1500
     43 H43       -11.3125    0.3845   52.7899 H       1  ZINC000826435081    0.4800
     44 H44        -8.2300    4.0317   55.9661 H       1  ZINC000826435081    0.1800
     45 H45        -9.3965    2.8710   58.0108 H       1  ZINC000826435081    0.1800
@<TRIPOS>BOND
     1     1     2    2
     2     2     3   am
     3     2    12   am
     4     3     4    1
     5     3    30    1
     6     4     5    1
     7     4    31    1
     8     4    32    1
     9     5     6    1
    10     5    11    1
    11     5     7    1
    12     7     8    1
    13     7    33    1
    14     7    34    1
    15     8     9    1
    16     9    10    1
    17     9    35    1
    18     9    36    1
    19    10    11    1
    20    10    37    1
    21    10    38    1
    22    12    13    1
    23    12    39    1
    24    13    29    1
    25    13    14    2
    26    14    15    1
    27    15    16    1
    28    15    28    1
    29    16    22   ar
    30    16    17   ar
    31    17    18   ar
    32    17    40    1
    33    18    19   ar
    34    18    41    1
    35    19    20   ar
    36    19    42    1
    37    20    21    1
    38    20    22   ar
    39    22    23    1
    40    23    27    1
    41    23    24    2
    42    24    25    1
    43    25    26    1
    44    25    43    1
    45    26    27    2
    46    28    29    2
    47    28    44    1
    48    29    45    1
@<TRIPOS>SUBSTRUCTURE
     1 ZINC000826435081        1 TEMP              0 ****  ****    0 ROOT


##########                                Name:    ZINC000508782983
##########                DOCK_Rotatable_Bonds:                   9
##########                         Heavy_Atoms:                  27
##########                    Molecular_Weight:             373.458
##########                DOCK_Rotatable_Bonds:                   9
##########                       Formal_Charge:          -0.0200006
##########                     HBond_Acceptors:                   9
##########                        HBond_Donors:                   2
##########                         Heavy_Atoms:                  27
##########                          Grid_Score:          -32.237366
##########                     Grid_vdw_energy:          -30.861736
##########                      Grid_es_energy:           -1.375628
##########           Internal_energy_repulsive:           21.104481

@<TRIPOS>MOLECULE
ZINC000508782983
 54 56 1 0 0
SMALL
USER_CHARGES


@<TRIPOS>ATOM
      1 C1         -4.8825    2.0736   51.7341 C.3     1  ZINC000508782983   -0.1500
      2 C2         -6.2252    2.5866   52.2584 C.3     1  ZINC000508782983   -0.1100
      3 C3         -6.7565    3.6739   51.3222 C.3     1  ZINC000508782983   -0.1500
      4 C4         -7.2255    1.4304   52.3166 C.3     1  ZINC000508782983    0.1000
      5 N5         -8.2404    1.7133   53.3345 N.pl3   1  ZINC000508782983   -0.4400
      6 C6         -8.5029    2.9303   53.9035 C.2     1  ZINC000508782983   -0.0400
      7 C7         -9.5052    2.7413   54.7828 C.2     1  ZINC000508782983   -0.0300
      8 N8         -9.8455    1.4443   54.7515 N.2     1  ZINC000508782983   -0.4700
      9 C9         -9.0954    0.8234   53.8826 C.2     1  ZINC000508782983    0.1700
     10 C10        -9.1655   -0.6454   53.5526 C.3     1  ZINC000508782983    0.2100
     11 N11        -9.4864   -1.4034   54.7644 N.am    1  ZINC000508782983   -0.6900
     12 C12       -10.7613   -1.4772   55.1954 C.2     1  ZINC000508782983    0.5100
     13 O13       -11.6435   -0.9170   54.5787 O.2     1  ZINC000508782983   -0.5100
     14 C14       -11.0884   -2.2490   56.4327 C.2     1  ZINC000508782983    0.5100
     15 O15       -11.8343   -3.2043   56.3725 O.2     1  ZINC000508782983   -0.5200
     16 N16       -10.5549   -1.8841   57.6154 N.am    1  ZINC000508782983   -0.5800
     17 C17        -9.6536   -0.7258   57.7116 C.3     1  ZINC000508782983    0.0800
     18 C18       -10.1572    0.1912   58.8313 C.3     1  ZINC000508782983    0.0400
     19 N19       -10.3031   -0.5869   60.0687 N.3     1  ZINC000508782983   -0.5400
     20 C20       -10.6182    0.2876   61.2063 C.3     1  ZINC000508782983    0.1400
     21 C21        -9.5653    0.1245   62.2720 C.2     1  ZINC000508782983    0.2100
     22 N22        -9.6807    0.4940   63.5183 N.2     1  ZINC000508782983   -0.4900
     23 C23        -8.5510    0.1930   64.1754 C.2     1  ZINC000508782983   -0.0300
     24 C24        -7.7031   -0.3850   63.3033 C.2     1  ZINC000508782983   -0.0500
     25 N25        -8.3481   -0.4336   62.0969 N.pl3   1  ZINC000508782983   -0.5600
     26 C26       -11.3150   -1.6412   59.9190 C.3     1  ZINC000508782983    0.0400
     27 C27       -10.8636   -2.6298   58.8450 C.3     1  ZINC000508782983    0.1100
     28 H28        -4.1700    2.8974   51.6926 H       1  ZINC000508782983    0.0700
     29 H29        -4.5041    1.2990   52.4010 H       1  ZINC000508782983    0.0600
     30 H30        -5.0171    1.6590   50.7351 H       1  ZINC000508782983    0.0600
     31 H31        -6.0907    3.0014   53.2574 H       1  ZINC000508782983    0.0800
     32 H32        -6.8181    3.2813   50.3073 H       1  ZINC000508782983    0.0600
     33 H33        -7.7477    3.9851   51.6522 H       1  ZINC000508782983    0.0600
     34 H34        -6.0822    4.5302   51.3402 H       1  ZINC000508782983    0.0600
     35 H35        -7.7069    1.3172   51.3453 H       1  ZINC000508782983    0.1000
     36 H36        -6.7016    0.5093   52.5720 H       1  ZINC000508782983    0.0900
     37 H37        -8.0021    3.8628   53.6888 H       1  ZINC000508782983    0.1800
     38 H38        -9.9562    3.5009   55.4041 H       1  ZINC000508782983    0.1700
     39 H39        -9.9396   -0.8129   52.8037 H       1  ZINC000508782983    0.0900
     40 H40        -8.2035   -0.9762   53.1612 H       1  ZINC000508782983    0.1100
     41 H41        -8.7813   -1.8522   55.2568 H       1  ZINC000508782983    0.4200
     42 H42        -8.6440   -1.0658   57.9430 H       1  ZINC000508782983    0.0800
     43 H43        -9.6525   -0.1831   56.7664 H       1  ZINC000508782983    0.1400
     44 H44        -9.4411    0.9974   58.9909 H       1  ZINC000508782983    0.0900
     45 H45       -11.1226    0.6120   58.5502 H       1  ZINC000508782983    0.0400
     46 H46       -10.6395    1.3248   60.8723 H       1  ZINC000508782983    0.0900
     47 H47       -11.5924    0.0170   61.6136 H       1  ZINC000508782983    0.0700
     48 H48        -8.3555    0.3812   65.2207 H       1  ZINC000508782983    0.1700
     49 H49        -6.7072   -0.7449   63.5158 H       1  ZINC000508782983    0.1800
     50 H50        -7.9947   -0.7961   61.2696 H       1  ZINC000508782983    0.4200
     51 H51       -11.4386   -2.1640   60.8675 H       1  ZINC000508782983    0.1100
     52 H52       -12.2642   -1.1949   59.6228 H       1  ZINC000508782983    0.0400
     53 H53       -11.6605   -3.3473   58.6496 H       1  ZINC000508782983    0.1000
     54 H54        -9.9695   -3.1541   59.1823 H       1  ZINC000508782983    0.0800
@<TRIPOS>BOND
     1     1     2    1
     2     1    28    1
     3     1    29    1
     4     1    30    1
     5     2     3    1
     6     2     4    1
     7     2    31    1
     8     3    32    1
     9     3    33    1
    10     3    34    1
    11     4     5    1
    12     4    35    1
    13     4    36    1
    14     5     9    1
    15     5     6    1
    16     6     7    2
    17     6    37    1
    18     7     8    1
    19     7    38    1
    20     8     9    2
    21     9    10    1
    22    10    11    1
    23    10    39    1
    24    10    40    1
    25    11    12   am
    26    11    41    1
    27    12    13    2
    28    12    14    1
    29    14    15    2
    30    14    16   am
    31    16    27    1
    32    16    17    1
    33    17    18    1
    34    17    42    1
    35    17    43    1
    36    18    19    1
    37    18    44    1
    38    18    45    1
    39    19    20    1
    40    19    26    1
    41    20    21    1
    42    20    46    1
    43    20    47    1
    44    21    25    1
    45    21    22    2
    46    22    23    1
    47    23    24    2
    48    23    48    1
    49    24    25    1
    50    24    49    1
    51    25    50    1
    52    26    27    1
    53    26    51    1
    54    26    52    1
    55    27    53    1
    56    27    54    1
@<TRIPOS>SUBSTRUCTURE
     1 ZINC000508782983        1 TEMP              0 ****  ****    0 ROOT


##########                                Name:    ZINC000740843182
##########                DOCK_Rotatable_Bonds:                  10
##########                         Heavy_Atoms:                  24
##########                    Molecular_Weight:              419.34
##########                DOCK_Rotatable_Bonds:                  10
##########                       Formal_Charge:          0.00999957
##########                     HBond_Acceptors:                   7
##########                        HBond_Donors:                   3
##########                         Heavy_Atoms:                  24
##########                          Grid_Score:          -32.225361
##########                     Grid_vdw_energy:          -31.249086
##########                      Grid_es_energy:           -0.976275
##########           Internal_energy_repulsive:           13.391025

@<TRIPOS>MOLECULE
ZINC000740843182
 47 48 1 0 0
SMALL
USER_CHARGES


@<TRIPOS>ATOM
      1 C1        -12.3777   -1.6050   56.7623 C.3     1  ZINC000740843182   -0.1500
      2 C2        -11.9499   -2.6738   57.7702 C.3     1  ZINC000740843182   -0.1000
      3 H3        -12.0723   -3.6616   57.3260 H       1  ZINC000740843182    0.0900
      4 C4        -10.4820   -2.4619   58.1459 C.3     1  ZINC000740843182    0.1200
      5 N5        -10.3187   -1.1372   58.7496 N.am    1  ZINC000740843182   -0.7200
      6 C6         -9.3717   -0.9359   59.6873 C.2     1  ZINC000740843182    0.5500
      7 O7         -8.6541   -1.8541   60.0332 O.2     1  ZINC000740843182   -0.5000
      8 C8         -9.2059    0.4010   60.2950 C.ar    1  ZINC000740843182   -0.1300
      9 C9         -9.8026    0.6920   61.5227 C.ar    1  ZINC000740843182    0.0200
     10 C10        -9.6434    1.9417   62.0848 C.ar    1  ZINC000740843182   -0.6800
     11 S11       -10.3962    2.3105   63.6346 S.o2    1  ZINC000740843182    2.7000
     12 O12       -10.4165    3.7270   63.7440 O.2     1  ZINC000740843182   -0.9400
     13 O13       -11.5663    1.5081   63.7135 O.2     1  ZINC000740843182   -0.9500
     14 N14        -9.3743    1.7647   64.8181 N.am    1  ZINC000740843182   -1.0900
     15 C15        -9.0228    0.3442   64.8845 C.3     1  ZINC000740843182    0.0800
     16 C16        -7.6961   -0.0250   65.5512 C.3     1  ZINC000740843182   -0.1800
     17 C17        -9.0180   -0.3187   66.2635 C.3     1  ZINC000740843182   -0.1900
     18 C18        -8.8939    2.9062   61.4348 C.ar    1  ZINC000740843182    0.0100
     19 C19        -8.2994    2.6256   60.2178 C.ar    1  ZINC000740843182   -0.1200
     20 C20        -8.4463    1.3775   59.6460 C.ar    1  ZINC000740843182    0.0100
     21 Br21       -7.6330    0.9953   57.9821 Br      1  ZINC000740843182    0.0100
     22 C22       -12.8181   -2.5677   59.0254 C.3     1  ZINC000740843182   -0.1400
     23 C23       -14.2451   -3.0119   58.6976 C.3     1  ZINC000740843182    0.1000
     24 H24       -14.6633   -2.3563   57.9339 H       1  ZINC000740843182    0.1000
     25 C25       -15.1053   -2.9375   59.9606 C.3     1  ZINC000740843182   -0.1900
     26 O26       -14.2260   -4.3561   58.2129 O.3     1  ZINC000740843182   -0.5600
     27 H27       -13.4235   -1.7559   56.4945 H       1  ZINC000740843182    0.0600
     28 H28       -12.2552   -0.6172   57.2064 H       1  ZINC000740843182    0.0600
     29 H29       -11.7591   -1.6805   55.8680 H       1  ZINC000740843182    0.0500
     30 H30       -10.1755   -3.2267   58.8595 H       1  ZINC000740843182    0.0700
     31 H31        -9.8641   -2.5318   57.2506 H       1  ZINC000740843182    0.0700
     32 H32       -10.8921   -0.4048   58.4745 H       1  ZINC000740843182    0.4000
     33 H33       -10.3879   -0.0597   62.0315 H       1  ZINC000740843182    0.1500
     34 H34        -9.0086    2.3858   65.4672 H       1  ZINC000740843182    0.4200
     35 H35        -9.3458   -0.2602   64.0368 H       1  ZINC000740843182    0.1400
     36 H36        -7.1458   -0.8722   65.1420 H       1  ZINC000740843182    0.1100
     37 H37        -7.0849    0.7893   65.9405 H       1  ZINC000740843182    0.1000
     38 H38        -9.2763    0.3023   67.1213 H       1  ZINC000740843182    0.1000
     39 H39        -9.3373   -1.3592   66.3229 H       1  ZINC000740843182    0.1100
     40 H40        -8.7729    3.8829   61.8798 H       1  ZINC000740843182    0.1600
     41 H41        -7.7157    3.3830   59.7158 H       1  ZINC000740843182    0.1500
     42 H42       -12.4083   -3.2088   59.8059 H       1  ZINC000740843182    0.0700
     43 H43       -12.8300   -1.5346   59.3728 H       1  ZINC000740843182    0.0800
     44 H44       -15.1199   -1.9122   60.3303 H       1  ZINC000740843182    0.0700
     45 H45       -16.1219   -3.2540   59.7271 H       1  ZINC000740843182    0.0600
     46 H46       -14.6870   -3.5931   60.7244 H       1  ZINC000740843182    0.0600
     47 H47       -15.0994   -4.7064   57.9904 H       1  ZINC000740843182    0.3700
@<TRIPOS>BOND
     1     1     2    1
     2     1    27    1
     3     1    28    1
     4     1    29    1
     5     2     3    1
     6     2     4    1
     7     2    22    1
     8     4     5    1
     9     4    30    1
    10     4    31    1
    11     5     6   am
    12     5    32    1
    13     6     7    2
    14     6     8    1
    15     8    20   ar
    16     8     9   ar
    17     9    10   ar
    18     9    33    1
    19    10    11    1
    20    10    18   ar
    21    11    12    2
    22    11    13    2
    23    11    14   am
    24    14    15    1
    25    14    34    1
    26    15    17    1
    27    15    16    1
    28    15    35    1
    29    16    17    1
    30    16    36    1
    31    16    37    1
    32    17    38    1
    33    17    39    1
    34    18    19   ar
    35    18    40    1
    36    19    20   ar
    37    19    41    1
    38    20    21    1
    39    22    23    1
    40    22    42    1
    41    22    43    1
    42    23    24    1
    43    23    25    1
    44    23    26    1
    45    25    44    1
    46    25    45    1
    47    25    46    1
    48    26    47    1
@<TRIPOS>SUBSTRUCTURE
     1 ZINC000740843182        1 TEMP              0 ****  ****    0 ROOT


##########                                Name:    ZINC000432833246
##########                DOCK_Rotatable_Bonds:                   5
##########                         Heavy_Atoms:                  25
##########                    Molecular_Weight:             400.318
##########                DOCK_Rotatable_Bonds:                   5
##########                       Formal_Charge:        -3.20375e-07
##########                     HBond_Acceptors:                   4
##########                        HBond_Donors:                   1
##########                         Heavy_Atoms:                  25
##########                          Grid_Score:          -32.176472
##########                     Grid_vdw_energy:          -30.486727
##########                      Grid_es_energy:           -1.689745
##########           Internal_energy_repulsive:            8.490197

@<TRIPOS>MOLECULE
ZINC000432833246
 47 51 1 0 0
SMALL
USER_CHARGES


@<TRIPOS>ATOM
      1 O1         -8.6921   -0.4499   65.1419 O.2     1  ZINC000432833246   -0.5200
      2 C2         -8.9813    0.2719   64.2111 C.2     1  ZINC000432833246    0.5200
      3 C3         -8.7133   -0.0417   62.7555 C.3     1  ZINC000432833246   -0.1500
      4 C4         -9.6177    0.9457   61.9822 C.3     1  ZINC000432833246   -0.1100
      5 H5        -10.5790    0.4899   61.7446 H       1  ZINC000432833246    0.1000
      6 C6         -8.9235    1.4456   60.7138 C.3     1  ZINC000432833246    0.1300
      7 N7         -8.3575    0.3072   59.9858 N.pl3   1  ZINC000432833246   -0.7200
      8 C8         -9.0043   -0.1893   58.8642 C.ar    1  ZINC000432833246    0.2800
      9 C9         -8.6103    0.2005   57.5620 C.ar    1  ZINC000432833246   -0.1500
     10 C10        -7.5543    1.0996   57.3577 C.ar    1  ZINC000432833246   -0.0700
     11 C11        -7.2039    1.4505   56.0886 C.ar    1  ZINC000432833246   -0.1300
     12 C12        -7.8820    0.9274   54.9904 C.ar    1  ZINC000432833246   -0.0600
     13 C13        -8.9124    0.0516   55.1537 C.ar    1  ZINC000432833246   -0.0800
     14 Br14       -9.8153   -0.6436   53.6445 Br      1  ZINC000432833246   -0.0300
     15 C15        -9.3017   -0.3340   56.4489 C.ar    1  ZINC000432833246    0.1900
     16 N16       -10.3097   -1.1929   56.6382 N.ar    1  ZINC000432833246   -0.5000
     17 C17       -10.6842   -1.5622   57.8411 C.ar    1  ZINC000432833246    0.2400
     18 C18       -11.8274   -2.5332   57.9863 C.3     1  ZINC000432833246   -0.1100
     19 C19       -13.0702   -2.2948   57.1262 C.3     1  ZINC000432833246   -0.1700
     20 C20       -12.1264   -3.4546   56.8020 C.3     1  ZINC000432833246   -0.1600
     21 C21       -10.0535   -1.0873   58.9827 C.ar    1  ZINC000432833246   -0.2700
     22 C22        -9.7862    2.0882   63.0081 C.3     1  ZINC000432833246    0.1100
     23 N23        -9.5918    1.4643   64.3223 N.am    1  ZINC000432833246   -0.5900
     24 C24       -10.0021    2.0676   65.5926 C.3     1  ZINC000432833246    0.0800
     25 C25        -9.8260    3.5796   65.7462 C.3     1  ZINC000432833246   -0.1900
     26 C26       -11.2257    2.9859   65.5759 C.3     1  ZINC000432833246   -0.1900
     27 H27        -7.6647    0.1327   62.5145 H       1  ZINC000432833246    0.1100
     28 H28        -8.9916   -1.0710   62.5296 H       1  ZINC000432833246    0.1000
     29 H29        -9.6481    1.9577   60.0807 H       1  ZINC000432833246    0.0800
     30 H30        -8.1253    2.1367   60.9848 H       1  ZINC000432833246    0.0700
     31 H31        -7.5304   -0.0992   60.2884 H       1  ZINC000432833246    0.4000
     32 H32        -7.0216    1.5122   58.2017 H       1  ZINC000432833246    0.1300
     33 H33        -6.3903    2.1433   55.9323 H       1  ZINC000432833246    0.1400
     34 H34        -7.5867    1.2210   53.9941 H       1  ZINC000432833246    0.1400
     35 H35       -11.9778   -2.9360   58.9878 H       1  ZINC000432833246    0.1300
     36 H36       -14.0385   -2.5408   57.5620 H       1  ZINC000432833246    0.1000
     37 H37       -13.0608   -1.4358   56.4554 H       1  ZINC000432833246    0.1000
     38 H38       -11.4962   -3.3585   55.9179 H       1  ZINC000432833246    0.0900
     39 H39       -12.4738   -4.4635   57.0245 H       1  ZINC000432833246    0.1000
     40 H40       -10.3839   -1.4099   59.9589 H       1  ZINC000432833246    0.1400
     41 H41        -9.0363    2.8609   62.8387 H       1  ZINC000432833246    0.0800
     42 H42       -10.7880    2.5123   62.9393 H       1  ZINC000432833246    0.0900
     43 H43        -9.8483    1.4502   66.4777 H       1  ZINC000432833246    0.1300
     44 H44        -9.5559    3.9574   66.7323 H       1  ZINC000432833246    0.1000
     45 H45        -9.4047    4.1255   64.9020 H       1  ZINC000432833246    0.1300
     46 H46       -11.7254    3.1413   64.6198 H       1  ZINC000432833246    0.0900
     47 H47       -11.8767    2.9730   66.4502 H       1  ZINC000432833246    0.1000
@<TRIPOS>BOND
     1     1     2    2
     2     2    23   am
     3     2     3    1
     4     3     4    1
     5     3    27    1
     6     3    28    1
     7     4     5    1
     8     4     6    1
     9     4    22    1
    10     6     7    1
    11     6    29    1
    12     6    30    1
    13     7     8    1
    14     7    31    1
    15     8    21   ar
    16     8     9   ar
    17     9    15   ar
    18     9    10   ar
    19    10    11   ar
    20    10    32    1
    21    11    12   ar
    22    11    33    1
    23    12    13   ar
    24    12    34    1
    25    13    14    1
    26    13    15   ar
    27    15    16   ar
    28    16    17   ar
    29    17    18    1
    30    17    21   ar
    31    18    20    1
    32    18    19    1
    33    18    35    1
    34    19    20    1
    35    19    36    1
    36    19    37    1
    37    20    38    1
    38    20    39    1
    39    21    40    1
    40    22    23    1
    41    22    41    1
    42    22    42    1
    43    23    24    1
    44    24    26    1
    45    24    25    1
    46    24    43    1
    47    25    26    1
    48    25    44    1
    49    25    45    1
    50    26    46    1
    51    26    47    1
@<TRIPOS>SUBSTRUCTURE
     1 ZINC000432833246        1 TEMP              0 ****  ****    0 ROOT


##########                                Name:    ZINC000481050680
##########                DOCK_Rotatable_Bonds:                   7
##########                         Heavy_Atoms:                  29
##########                    Molecular_Weight:              412.46
##########                DOCK_Rotatable_Bonds:                   7
##########                       Formal_Charge:          -0.0199997
##########                     HBond_Acceptors:                   7
##########                        HBond_Donors:                   1
##########                         Heavy_Atoms:                  29
##########                          Grid_Score:          -32.110504
##########                     Grid_vdw_energy:          -31.158533
##########                      Grid_es_energy:           -0.951971
##########           Internal_energy_repulsive:           16.265495

@<TRIPOS>MOLECULE
ZINC000481050680
 47 49 1 0 0
SMALL
USER_CHARGES


@<TRIPOS>ATOM
      1 N1         -4.8380    2.0758   51.3322 N.1     1  ZINC000481050680   -0.3900
      2 C2         -5.8605    1.7068   51.6617 C.1     1  ZINC000481050680    0.2500
      3 C3         -7.1495    1.2417   52.0773 C.ar    1  ZINC000481050680    0.0200
      4 C4         -7.3835   -0.1255   52.2368 C.ar    1  ZINC000481050680   -0.0800
      5 C5         -8.6272   -0.5682   52.6378 C.ar    1  ZINC000481050680   -0.0800
      6 C6         -9.6425    0.3386   52.8821 C.ar    1  ZINC000481050680   -0.1000
      7 C7        -10.9982   -0.1529   53.3199 C.3     1  ZINC000481050680   -0.5900
      8 S8        -11.2306    0.2046   55.0831 S.o2    1  ZINC000481050680    2.6000
      9 O9        -10.1055    0.8990   55.6037 O.2     1  ZINC000481050680   -0.9300
     10 O10       -12.5529    0.6635   55.3287 O.2     1  ZINC000481050680   -0.9400
     11 N11       -11.1703   -1.2788   55.8168 N.am    1  ZINC000481050680   -1.1100
     12 C12       -11.3234   -1.3840   57.2700 C.3     1  ZINC000481050680    0.2100
     13 H13       -11.5538   -0.4019   57.6830 H       1  ZINC000481050680    0.1000
     14 C14       -10.0213   -1.9027   57.8837 C.3     1  ZINC000481050680   -0.0800
     15 C15        -9.5576   -0.9513   58.9564 C.ar    1  ZINC000481050680   -0.0900
     16 C16        -9.7245    0.4110   58.7911 C.ar    1  ZINC000481050680   -0.1200
     17 C17        -9.2991    1.2839   59.7750 C.ar    1  ZINC000481050680   -0.1200
     18 C18        -8.7072    0.7944   60.9244 C.ar    1  ZINC000481050680   -0.1200
     19 C19        -8.5410   -0.5679   61.0900 C.ar    1  ZINC000481050680   -0.1200
     20 C20        -8.9703   -1.4410   60.1080 C.ar    1  ZINC000481050680   -0.1200
     21 C21       -12.4446   -2.3389   57.5892 C.ar    1  ZINC000481050680   -0.1300
     22 C22       -12.4764   -3.5888   57.0010 C.ar    1  ZINC000481050680   -0.0700
     23 C23       -13.5052   -4.4652   57.2937 C.ar    1  ZINC000481050680   -0.1300
     24 C24       -14.5029   -4.0918   58.1744 C.ar    1  ZINC000481050680   -0.0900
     25 C25       -14.4735   -2.8419   58.7635 C.ar    1  ZINC000481050680   -0.1500
     26 C26       -13.4404   -1.9661   58.4764 C.ar    1  ZINC000481050680    0.1100
     27 F27       -13.4106   -0.7441   59.0517 F       1  ZINC000481050680   -0.1400
     28 C28        -9.4183    1.6974   52.7266 C.ar    1  ZINC000481050680    0.1200
     29 F29       -10.4147    2.5775   52.9675 F       1  ZINC000481050680   -0.1200
     30 C30        -8.1760    2.1538   52.3302 C.ar    1  ZINC000481050680   -0.1000
     31 H31        -6.5922   -0.8355   52.0463 H       1  ZINC000481050680    0.1500
     32 H32        -8.8086   -1.6257   52.7610 H       1  ZINC000481050680    0.1500
     33 H33       -11.7719    0.3522   52.7417 H       1  ZINC000481050680    0.1500
     34 H34       -11.0653   -1.2283   53.1553 H       1  ZINC000481050680    0.1500
     35 H35       -11.0336   -2.0781   55.2844 H       1  ZINC000481050680    0.4200
     36 H36       -10.1922   -2.8868   58.3200 H       1  ZINC000481050680    0.0900
     37 H37        -9.2585   -1.9763   57.1087 H       1  ZINC000481050680    0.0900
     38 H38       -10.1870    0.7934   57.8932 H       1  ZINC000481050680    0.1200
     39 H39        -9.4289    2.3482   59.6457 H       1  ZINC000481050680    0.1200
     40 H40        -8.3741    1.4764   61.6928 H       1  ZINC000481050680    0.1200
     41 H41        -8.0782   -0.9503   61.9878 H       1  ZINC000481050680    0.1200
     42 H42        -8.8405   -2.5053   60.2373 H       1  ZINC000481050680    0.1200
     43 H43       -11.6977   -3.8813   56.3122 H       1  ZINC000481050680    0.1300
     44 H44       -13.5292   -5.4419   56.8336 H       1  ZINC000481050680    0.1300
     45 H45       -15.3062   -4.7771   58.4020 H       1  ZINC000481050680    0.1300
     46 H46       -15.2536   -2.5502   59.4511 H       1  ZINC000481050680    0.1400
     47 H47        -8.0012    3.2126   52.2093 H       1  ZINC000481050680    0.1600
@<TRIPOS>BOND
     1     1     2    3
     2     2     3    1
     3     3    30   ar
     4     3     4   ar
     5     4     5   ar
     6     4    31    1
     7     5     6   ar
     8     5    32    1
     9     6     7    1
    10     6    28   ar
    11     7     8    1
    12     7    33    1
    13     7    34    1
    14     8     9    2
    15     8    10    2
    16     8    11   am
    17    11    12    1
    18    11    35    1
    19    12    13    1
    20    12    14    1
    21    12    21    1
    22    14    15    1
    23    14    36    1
    24    14    37    1
    25    15    20   ar
    26    15    16   ar
    27    16    17   ar
    28    16    38    1
    29    17    18   ar
    30    17    39    1
    31    18    19   ar
    32    18    40    1
    33    19    20   ar
    34    19    41    1
    35    20    42    1
    36    21    26   ar
    37    21    22   ar
    38    22    23   ar
    39    22    43    1
    40    23    24   ar
    41    23    44    1
    42    24    25   ar
    43    24    45    1
    44    25    26   ar
    45    25    46    1
    46    26    27    1
    47    28    29    1
    48    28    30   ar
    49    30    47    1
@<TRIPOS>SUBSTRUCTURE
     1 ZINC000481050680        1 TEMP              0 ****  ****    0 ROOT


##########                                Name:    ZINC000150894060
##########                DOCK_Rotatable_Bonds:                  10
##########                         Heavy_Atoms:                  27
##########                    Molecular_Weight:              366.42
##########                DOCK_Rotatable_Bonds:                  10
##########                       Formal_Charge:        -6.70552e-07
##########                     HBond_Acceptors:                   7
##########                        HBond_Donors:                   2
##########                         Heavy_Atoms:                  27
##########                          Grid_Score:          -32.081795
##########                     Grid_vdw_energy:          -31.609140
##########                      Grid_es_energy:           -0.472654
##########           Internal_energy_repulsive:           15.089001

@<TRIPOS>MOLECULE
ZINC000150894060
 49 51 1 0 0
SMALL
USER_CHARGES


@<TRIPOS>ATOM
      1 C1         -2.6839    4.4618   57.1780 C.3     1  ZINC000150894060   -0.1000
      2 C2         -1.7500    4.0206   56.0806 C.2     1  ZINC000150894060   -0.0800
      3 C3         -2.1016    3.6162   54.8247 C.2     1  ZINC000150894060   -0.1000
      4 C4         -3.4674    3.5319   54.2973 C.2     1  ZINC000150894060    0.6100
      5 O5         -4.4116    3.8381   55.0014 O.2     1  ZINC000150894060   -0.5100
      6 N6         -3.6770    3.1151   53.0329 N.am    1  ZINC000150894060   -0.7200
      7 C7         -5.0413    3.0325   52.5054 C.3     1  ZINC000150894060    0.1200
      8 C8         -5.1174    1.9175   51.4605 C.3     1  ZINC000150894060   -0.1500
      9 C9         -6.5371    1.8452   50.8945 C.3     1  ZINC000150894060    0.1200
     10 N10        -7.3699    1.0160   51.7693 N.am    1  ZINC000150894060   -0.7300
     11 C11        -8.1436    1.5941   52.7092 C.2     1  ZINC000150894060    0.5600
     12 O12        -8.1516    2.8036   52.8302 O.2     1  ZINC000150894060   -0.5300
     13 C13        -8.9827    0.7572   53.5932 C.ar    1  ZINC000150894060   -0.1300
     14 C14        -9.0723   -0.6188   53.3776 C.ar    1  ZINC000150894060   -0.0900
     15 C15        -9.8567   -1.3942   54.2065 C.ar    1  ZINC000150894060   -0.0900
     16 C16       -10.5539   -0.8104   55.2493 C.ar    1  ZINC000150894060   -0.0800
     17 C17       -11.4092   -1.6634   56.1503 C.3     1  ZINC000150894060    0.1700
     18 N18       -10.5562   -2.3632   57.1141 N.pl3   1  ZINC000150894060   -0.3700
     19 C19        -9.7127   -1.7847   57.9945 C.2     1  ZINC000150894060    0.0500
     20 C20        -9.1130   -2.7711   58.7004 C.2     1  ZINC000150894060   -0.2700
     21 C21        -9.6069   -3.9944   58.2356 C.2     1  ZINC000150894060    0.0400
     22 N22       -10.4766   -3.7508   57.2889 N.2     1  ZINC000150894060   -0.2900
     23 C23       -10.4690    0.5530   55.4687 C.ar    1  ZINC000150894060   -0.1100
     24 C24        -9.6841    1.3390   54.6505 C.ar    1  ZINC000150894060   -0.0600
     25 O25        -0.9723    3.3079   54.1540 O.3     1  ZINC000150894060   -0.1700
     26 C26         0.0860    3.5058   54.9506 C.2     1  ZINC000150894060    0.0000
     27 C27        -0.3497    3.9516   56.1495 C.2     1  ZINC000150894060   -0.2300
     28 H28        -2.8445    5.5377   57.1077 H       1  ZINC000150894060    0.0800
     29 H29        -3.6377    3.9446   57.0732 H       1  ZINC000150894060    0.0900
     30 H30        -2.2452    4.2224   58.1466 H       1  ZINC000150894060    0.0700
     31 H31        -2.9245    2.8699   52.4720 H       1  ZINC000150894060    0.4100
     32 H32        -5.7330    2.8156   53.3194 H       1  ZINC000150894060    0.0800
     33 H33        -5.3104    3.9824   52.0434 H       1  ZINC000150894060    0.0800
     34 H34        -4.4149    2.1268   50.6539 H       1  ZINC000150894060    0.0800
     35 H35        -4.8629    0.9653   51.9260 H       1  ZINC000150894060    0.0800
     36 H36        -6.9572    2.8493   50.8378 H       1  ZINC000150894060    0.0800
     37 H37        -6.5087    1.4063   49.8972 H       1  ZINC000150894060    0.0800
     38 H38        -7.3644    0.0509   51.6720 H       1  ZINC000150894060    0.4000
     39 H39        -8.5292   -1.0757   52.5636 H       1  ZINC000150894060    0.1300
     40 H40        -9.9269   -2.4591   54.0407 H       1  ZINC000150894060    0.1300
     41 H41       -12.1177   -1.0305   56.6846 H       1  ZINC000150894060    0.1100
     42 H42       -11.9538   -2.3927   55.5506 H       1  ZINC000150894060    0.1000
     43 H43        -9.5459   -0.7243   58.1138 H       1  ZINC000150894060    0.1700
     44 H44        -8.3818   -2.6375   59.4839 H       1  ZINC000150894060    0.1500
     45 H45        -9.3232   -4.9710   58.5990 H       1  ZINC000150894060    0.1800
     46 H46       -11.0155    1.0025   56.2846 H       1  ZINC000150894060    0.1300
     47 H47        -9.6184    2.4031   54.8231 H       1  ZINC000150894060    0.1400
     48 H48         1.1179    3.3404   54.6782 H       1  ZINC000150894060    0.2100
     49 H49         0.2637    4.2015   57.0026 H       1  ZINC000150894060    0.1600
@<TRIPOS>BOND
     1     1     2    1
     2     1    28    1
     3     1    29    1
     4     1    30    1
     5     2    27    1
     6     2     3    2
     7     3     4    1
     8     3    25    1
     9     4     5    2
    10     4     6   am
    11     6     7    1
    12     6    31    1
    13     7     8    1
    14     7    32    1
    15     7    33    1
    16     8     9    1
    17     8    34    1
    18     8    35    1
    19     9    10    1
    20     9    36    1
    21     9    37    1
    22    10    11   am
    23    10    38    1
    24    11    12    2
    25    11    13    1
    26    13    24   ar
    27    13    14   ar
    28    14    15   ar
    29    14    39    1
    30    15    16   ar
    31    15    40    1
    32    16    17    1
    33    16    23   ar
    34    17    18    1
    35    17    41    1
    36    17    42    1
    37    18    22    1
    38    18    19    1
    39    19    20    2
    40    19    43    1
    41    20    21    1
    42    20    44    1
    43    21    22    2
    44    21    45    1
    45    23    24   ar
    46    23    46    1
    47    24    47    1
    48    25    26    1
    49    26    27    2
    50    26    48    1
    51    27    49    1
@<TRIPOS>SUBSTRUCTURE
     1 ZINC000150894060        1 TEMP              0 ****  ****    0 ROOT


##########                                Name:    ZINC000046390957
##########                DOCK_Rotatable_Bonds:                   9
##########                         Heavy_Atoms:                  29
##########                    Molecular_Weight:             408.521
##########                DOCK_Rotatable_Bonds:                   9
##########                       Formal_Charge:           0.0100005
##########                     HBond_Acceptors:                   6
##########                        HBond_Donors:                   1
##########                         Heavy_Atoms:                  29
##########                          Grid_Score:          -32.066875
##########                     Grid_vdw_energy:          -32.596703
##########                      Grid_es_energy:            0.529826
##########           Internal_energy_repulsive:           11.562448

@<TRIPOS>MOLECULE
ZINC000046390957
 53 55 1 0 0
SMALL
USER_CHARGES


@<TRIPOS>ATOM
      1 C1         -9.5059   -1.3080   52.9337 C.3     1  ZINC000046390957   -0.1100
      2 C2         -8.7622   -0.2070   53.6448 C.ar    1  ZINC000046390957   -0.0600
      3 C3         -8.0358    0.7170   52.9194 C.ar    1  ZINC000046390957   -0.1200
      4 C4         -7.3526    1.7273   53.5711 C.ar    1  ZINC000046390957   -0.1100
      5 C5         -7.3947    1.8163   54.9504 C.ar    1  ZINC000046390957   -0.1200
      6 C6         -8.1197    0.8958   55.6815 C.ar    1  ZINC000046390957   -0.0800
      7 C7         -8.1654    0.9939   57.1846 C.3     1  ZINC000046390957   -0.1100
      8 C8         -8.8111   -0.1169   55.0297 C.ar    1  ZINC000046390957    0.1300
      9 N9         -9.5469   -1.0508   55.7675 N.am    1  ZINC000046390957   -0.6800
     10 C10       -10.8683   -0.8678   55.9594 C.2     1  ZINC000046390957    0.5200
     11 O11       -11.4197    0.1066   55.4928 O.2     1  ZINC000046390957   -0.4900
     12 C12       -11.6608   -1.8736   56.7540 C.3     1  ZINC000046390957    0.0700
     13 H13       -12.6667   -1.9513   56.3414 H       1  ZINC000046390957    0.1100
     14 C14       -10.9725   -3.2380   56.6804 C.3     1  ZINC000046390957   -0.1700
     15 O15       -11.7376   -1.4443   58.1390 O.3     1  ZINC000046390957   -0.3300
     16 C16       -12.9499   -1.1073   58.6061 C.2     1  ZINC000046390957    0.4700
     17 O17       -13.7411   -0.5471   57.8849 O.2     1  ZINC000046390957   -0.4800
     18 C18       -13.3245   -1.4278   60.0303 C.3     1  ZINC000046390957   -0.0300
     19 C19       -12.9518   -0.2703   60.9204 C.2     1  ZINC000046390957    0.0800
     20 C20       -13.8506    0.4033   61.6445 C.2     1  ZINC000046390957   -0.2500
     21 S21       -12.9973    1.6642   62.5315 S.3     1  ZINC000046390957    0.1300
     22 C22       -11.5168    1.1602   61.8403 C.2     1  ZINC000046390957    0.0600
     23 C23       -10.1767    1.7920   62.1161 C.3     1  ZINC000046390957    0.0000
     24 C24        -9.6045    1.2207   63.3880 C.ar    1  ZINC000046390957   -0.0900
     25 C25        -8.7300    0.1515   63.3333 C.ar    1  ZINC000046390957   -0.0900
     26 C26        -8.2051   -0.3724   64.4998 C.ar    1  ZINC000046390957   -0.1200
     27 C27        -8.5544    0.1731   65.7210 C.ar    1  ZINC000046390957   -0.1200
     28 C28        -9.4282    1.2429   65.7757 C.ar    1  ZINC000046390957   -0.1200
     29 C29        -9.9498    1.7696   64.6088 C.ar    1  ZINC000046390957   -0.1100
     30 N30       -11.7124    0.1570   61.0527 N.2     1  ZINC000046390957   -0.4500
     31 H31       -10.4721   -0.9340   52.5950 H       1  ZINC000046390957    0.0800
     32 H32        -8.9246   -1.6432   52.0747 H       1  ZINC000046390957    0.0700
     33 H33        -9.6589   -2.1433   53.6171 H       1  ZINC000046390957    0.0600
     34 H34        -8.0010    0.6501   51.8420 H       1  ZINC000046390957    0.1300
     35 H35        -6.7848    2.4481   53.0017 H       1  ZINC000046390957    0.1300
     36 H36        -6.8598    2.6064   55.4565 H       1  ZINC000046390957    0.1300
     37 H37        -9.0065    1.6200   57.4825 H       1  ZINC000046390957    0.0700
     38 H38        -8.2854   -0.0024   57.6103 H       1  ZINC000046390957    0.0600
     39 H39        -7.2373    1.4350   57.5483 H       1  ZINC000046390957    0.0700
     40 H40        -9.1060   -1.8300   56.1407 H       1  ZINC000046390957    0.4100
     41 H41       -10.9149   -3.5604   55.6407 H       1  ZINC000046390957    0.0800
     42 H42        -9.9666   -3.1604   57.0931 H       1  ZINC000046390957    0.0800
     43 H43       -11.5458   -3.9656   57.2551 H       1  ZINC000046390957    0.0800
     44 H44       -14.3985   -1.6033   60.0928 H       1  ZINC000046390957    0.1200
     45 H45       -12.7909   -2.3215   60.3539 H       1  ZINC000046390957    0.1300
     46 H46       -14.9124    0.2092   61.6799 H       1  ZINC000046390957    0.1800
     47 H47        -9.4996    1.5842   61.2876 H       1  ZINC000046390957    0.1000
     48 H48       -10.2984    2.8697   62.2244 H       1  ZINC000046390957    0.1000
     49 H49        -8.4571   -0.2746   62.3791 H       1  ZINC000046390957    0.1200
     50 H50        -7.5224   -1.2082   64.4571 H       1  ZINC000046390957    0.1200
     51 H51        -8.1448   -0.2368   66.6325 H       1  ZINC000046390957    0.1200
     52 H52        -9.7014    1.6688   66.7297 H       1  ZINC000046390957    0.1200
     53 H53       -10.6324    2.6053   64.6515 H       1  ZINC000046390957    0.1200
@<TRIPOS>BOND
     1     1     2    1
     2     1    31    1
     3     1    32    1
     4     1    33    1
     5     2     8   ar
     6     2     3   ar
     7     3     4   ar
     8     3    34    1
     9     4     5   ar
    10     4    35    1
    11     5     6   ar
    12     5    36    1
    13     6     7    1
    14     6     8   ar
    15     7    37    1
    16     7    38    1
    17     7    39    1
    18     8     9    1
    19     9    10   am
    20     9    40    1
    21    10    11    2
    22    10    12    1
    23    12    13    1
    24    12    14    1
    25    12    15    1
    26    14    41    1
    27    14    42    1
    28    14    43    1
    29    15    16    1
    30    16    17    2
    31    16    18    1
    32    18    19    1
    33    18    44    1
    34    18    45    1
    35    19    30    1
    36    19    20    2
    37    20    21    1
    38    20    46    1
    39    21    22    1
    40    22    23    1
    41    22    30    2
    42    23    24    1
    43    23    47    1
    44    23    48    1
    45    24    29   ar
    46    24    25   ar
    47    25    26   ar
    48    25    49    1
    49    26    27   ar
    50    26    50    1
    51    27    28   ar
    52    27    51    1
    53    28    29   ar
    54    28    52    1
    55    29    53    1
@<TRIPOS>SUBSTRUCTURE
     1 ZINC000046390957        1 TEMP              0 ****  ****    0 ROOT


##########                                Name:    ZINC000503413572
##########                DOCK_Rotatable_Bonds:                   7
##########                         Heavy_Atoms:                  26
##########                    Molecular_Weight:             355.375
##########                DOCK_Rotatable_Bonds:                   7
##########                       Formal_Charge:        -1.71363e-07
##########                     HBond_Acceptors:                   9
##########                        HBond_Donors:                   1
##########                         Heavy_Atoms:                  26
##########                          Grid_Score:          -32.052277
##########                     Grid_vdw_energy:          -30.709333
##########                      Grid_es_energy:           -1.342945
##########           Internal_energy_repulsive:            8.377400

@<TRIPOS>MOLECULE
ZINC000503413572
 44 47 1 0 0
SMALL
USER_CHARGES


@<TRIPOS>ATOM
      1 C1         -9.0947   -0.5716   53.3256 C.3     1  ZINC000503413572   -0.1200
      2 C2         -8.1026    0.5622   53.2910 C.ar    1  ZINC000503413572   -0.0200
      3 C3         -7.2776    0.7250   52.1957 C.ar    1  ZINC000503413572   -0.1400
      4 C4         -6.3658    1.7671   52.1632 C.ar    1  ZINC000503413572    0.1300
      5 F5         -5.5597    1.9251   51.0906 F       1  ZINC000503413572   -0.1300
      6 C6         -6.2799    2.6476   53.2284 C.ar    1  ZINC000503413572   -0.1400
      7 C7         -7.1036    2.4879   54.3256 C.ar    1  ZINC000503413572   -0.0700
      8 C8         -8.0214    1.4472   54.3577 C.ar    1  ZINC000503413572    0.1000
      9 N9         -8.8592    1.2837   55.4710 N.pl3   1  ZINC000503413572   -0.3100
     10 C10        -8.5026    0.8109   56.6848 C.2     1  ZINC000503413572    0.1100
     11 C11        -9.6279    0.8238   57.4596 C.2     1  ZINC000503413572   -0.1000
     12 C12        -9.7104    0.3908   58.8674 C.2     1  ZINC000503413572    0.6100
     13 O13       -10.7714    0.4449   59.4588 O.2     1  ZINC000503413572   -0.5300
     14 N14        -8.6098   -0.0647   59.4979 N.am    1  ZINC000503413572   -0.7200
     15 C15        -8.6921   -0.4964   60.8955 C.3     1  ZINC000503413572    0.1100
     16 C16        -8.7886    0.7312   61.8035 C.3     1  ZINC000503413572    0.1000
     17 N17        -8.6059    0.3222   63.1984 N.pl3   1  ZINC000503413572   -0.4700
     18 C18        -7.7660   -0.6336   63.6642 C.2     1  ZINC000503413572    0.1500
     19 N19        -7.9126   -0.6810   64.9604 N.2     1  ZINC000503413572   -0.2900
     20 N20        -8.7896    0.1843   65.3289 N.2     1  ZINC000503413572   -0.2900
     21 C21        -9.2382    0.8270   64.2852 C.2     1  ZINC000503413572    0.2100
     22 C22       -10.2749    1.9208   64.2876 C.3     1  ZINC000503413572   -0.1000
     23 C23       -10.5044    2.6739   65.5995 C.3     1  ZINC000503413572   -0.1500
     24 C24        -9.7818    3.3612   64.4391 C.3     1  ZINC000503413572   -0.1600
     25 N25       -10.6470    1.2976   56.7224 N.2     1  ZINC000503413572   -0.2000
     26 N26       -10.2267    1.5854   55.5399 N.2     1  ZINC000503413572   -0.0400
     27 H27       -10.0642   -0.2169   52.9759 H       1  ZINC000503413572    0.0900
     28 H28        -8.7479   -1.3778   52.6792 H       1  ZINC000503413572    0.0800
     29 H29        -9.1896   -0.9402   54.3470 H       1  ZINC000503413572    0.0700
     30 H30        -7.3429    0.0389   51.3642 H       1  ZINC000503413572    0.1500
     31 H31        -5.5682    3.4595   53.2015 H       1  ZINC000503413572    0.1500
     32 H32        -7.0360    3.1746   55.1565 H       1  ZINC000503413572    0.1500
     33 H33        -7.5177    0.4850   56.9850 H       1  ZINC000503413572    0.2100
     34 H34        -7.7631   -0.1068   59.0264 H       1  ZINC000503413572    0.4100
     35 H35        -9.5759   -1.1196   61.0318 H       1  ZINC000503413572    0.0800
     36 H36        -7.8007   -1.0689   61.1520 H       1  ZINC000503413572    0.0800
     37 H37        -8.0135    1.4471   61.5303 H       1  ZINC000503413572    0.1100
     38 H38        -9.7685    1.1939   61.6861 H       1  ZINC000503413572    0.1100
     39 H39        -7.0994   -1.2436   63.0727 H       1  ZINC000503413572    0.2200
     40 H40       -11.1401    1.7498   63.6471 H       1  ZINC000503413572    0.1200
     41 H41       -11.5208    2.9984   65.8223 H       1  ZINC000503413572    0.1100
     42 H42        -9.9055    2.3782   66.4609 H       1  ZINC000503413572    0.1100
     43 H43        -8.7076    3.5178   64.5372 H       1  ZINC000503413572    0.1000
     44 H44       -10.3229    4.1378   63.8986 H       1  ZINC000503413572    0.1100
@<TRIPOS>BOND
     1     1     2    1
     2     1    27    1
     3     1    28    1
     4     1    29    1
     5     2     8   ar
     6     2     3   ar
     7     3     4   ar
     8     3    30    1
     9     4     5    1
    10     4     6   ar
    11     6     7   ar
    12     6    31    1
    13     7     8   ar
    14     7    32    1
    15     8     9    1
    16     9    26    1
    17     9    10    1
    18    10    11    2
    19    10    33    1
    20    11    12    1
    21    11    25    1
    22    12    13    2
    23    12    14   am
    24    14    15    1
    25    14    34    1
    26    15    16    1
    27    15    35    1
    28    15    36    1
    29    16    17    1
    30    16    37    1
    31    16    38    1
    32    17    21    1
    33    17    18    1
    34    18    19    2
    35    18    39    1
    36    19    20    1
    37    20    21    2
    38    21    22    1
    39    22    24    1
    40    22    23    1
    41    22    40    1
    42    23    24    1
    43    23    41    1
    44    23    42    1
    45    24    43    1
    46    24    44    1
    47    25    26    2
@<TRIPOS>SUBSTRUCTURE
     1 ZINC000503413572        1 TEMP              0 ****  ****    0 ROOT


##########                                Name:    ZINC001141221454
##########                DOCK_Rotatable_Bonds:                   7
##########                         Heavy_Atoms:                  27
##########                    Molecular_Weight:             369.439
##########                DOCK_Rotatable_Bonds:                   7
##########                       Formal_Charge:          0.00999935
##########                     HBond_Acceptors:                   6
##########                        HBond_Donors:                   1
##########                         Heavy_Atoms:                  27
##########                          Grid_Score:          -32.052265
##########                     Grid_vdw_energy:          -28.640291
##########                      Grid_es_energy:           -3.411975
##########           Internal_energy_repulsive:           15.680719

@<TRIPOS>MOLECULE
ZINC001141221454
 51 54 1 0 0
SMALL
USER_CHARGES


@<TRIPOS>ATOM
      1 C1        -13.5397    2.8981   67.3918 C.3     1  ZINC001141221454    0.0300
      2 O2        -12.9953    3.1034   66.0866 O.3     1  ZINC001141221454   -0.3100
      3 C3        -11.7996    2.5150   65.8171 C.ar    1  ZINC001141221454    0.0900
      4 C4        -11.0994    1.8713   66.8254 C.ar    1  ZINC001141221454   -0.1800
      5 C5         -9.8842    1.2733   66.5491 C.ar    1  ZINC001141221454   -0.0900
      6 C6         -9.3660    1.3162   65.2684 C.ar    1  ZINC001141221454   -0.1200
      7 C7        -10.0610    1.9577   64.2595 C.ar    1  ZINC001141221454   -0.0800
      8 C8         -9.4928    2.0030   62.8645 C.3     1  ZINC001141221454    0.0900
      9 N9         -9.9748    0.8439   62.1016 N.3     1  ZINC001141221454   -0.5100
     10 C10       -10.9750    1.2556   61.0827 C.3     1  ZINC001141221454    0.0300
     11 C11       -10.9575    0.0817   60.0693 C.3     1  ZINC001141221454   -0.0700
     12 C12        -9.4710   -0.3185   60.0400 C.3     1  ZINC001141221454   -0.1000
     13 C13        -8.6783   -0.3136   58.7394 C.3     1  ZINC001141221454   -0.1400
     14 C14        -9.0210   -1.6383   59.4274 C.3     1  ZINC001141221454   -0.1800
     15 H15        -8.2105   -2.1729   59.9227 H       1  ZINC001141221454    0.1300
     16 C16       -10.0744   -2.5040   58.7857 C.2     1  ZINC001141221454    0.5500
     17 O17       -10.8762   -3.0962   59.4767 O.2     1  ZINC001141221454   -0.5300
     18 N18       -10.1256   -2.6202   57.4440 N.am    1  ZINC001141221454   -0.7300
     19 C19       -11.1485   -3.4632   56.8202 C.3     1  ZINC001141221454    0.1700
     20 C20       -12.5105   -2.8685   57.0702 C.ar    1  ZINC001141221454   -0.1600
     21 C21       -13.6260   -3.6857   57.1684 C.ar    1  ZINC001141221454   -0.0600
     22 C22       -14.8589   -3.0945   57.3995 C.ar    1  ZINC001141221454   -0.1700
     23 C23       -14.9342   -1.7203   57.5232 C.ar    1  ZINC001141221454    0.1100
     24 N24       -13.8514   -0.9737   57.4240 N.ar    1  ZINC001141221454   -0.4800
     25 C25       -12.6624   -1.5017   57.2100 C.ar    1  ZINC001141221454    0.1200
     26 C26        -8.8695    0.2066   61.3495 C.3     1  ZINC001141221454    0.0700
     27 C27       -11.2799    2.5528   64.5289 C.ar    1  ZINC001141221454    0.0900
     28 F28       -11.9593    3.1796   63.5436 F       1  ZINC001141221454   -0.1300
     29 H29       -14.4929    3.4202   67.4741 H       1  ZINC001141221454    0.1000
     30 H30       -13.6940    1.8318   67.5576 H       1  ZINC001141221454    0.0600
     31 H31       -12.8474    3.2855   68.1394 H       1  ZINC001141221454    0.0600
     32 H32       -11.5029    1.8373   67.8266 H       1  ZINC001141221454    0.1400
     33 H33        -9.3387    0.7722   67.3351 H       1  ZINC001141221454    0.1300
     34 H34        -8.4163    0.8481   65.0554 H       1  ZINC001141221454    0.1300
     35 H35        -9.8125    2.9210   62.3715 H       1  ZINC001141221454    0.0600
     36 H36        -8.4042    1.9778   62.9147 H       1  ZINC001141221454    0.0900
     37 H37       -11.9620    1.3595   61.5334 H       1  ZINC001141221454    0.0800
     38 H38       -10.6719    2.1847   60.6001 H       1  ZINC001141221454    0.0500
     39 H39       -11.5732   -0.7447   60.4244 H       1  ZINC001141221454    0.0900
     40 H40       -11.2872    0.4157   59.0854 H       1  ZINC001141221454    0.0700
     41 H41        -9.2155   -0.0683   57.8233 H       1  ZINC001141221454    0.1000
     42 H42        -7.6424    0.0229   58.7822 H       1  ZINC001141221454    0.1100
     43 H43        -9.4851   -2.1456   56.8913 H       1  ZINC001141221454    0.4000
     44 H44       -10.9680   -3.5195   55.7468 H       1  ZINC001141221454    0.0800
     45 H45       -11.1051   -4.4645   57.2489 H       1  ZINC001141221454    0.0800
     46 H46       -13.5370   -4.7573   57.0671 H       1  ZINC001141221454    0.1400
     47 H47       -15.7491   -3.7005   57.4814 H       1  ZINC001141221454    0.1400
     48 H48       -15.8906   -1.2522   57.7029 H       1  ZINC001141221454    0.1600
     49 H49       -11.7984   -0.8582   57.1345 H       1  ZINC001141221454    0.1600
     50 H50        -8.0926    0.9405   61.1352 H       1  ZINC001141221454    0.0500
     51 H51        -8.4536   -0.6194   61.9264 H       1  ZINC001141221454    0.0900
@<TRIPOS>BOND
     1     1     2    1
     2     1    29    1
     3     1    30    1
     4     1    31    1
     5     2     3    1
     6     3    27   ar
     7     3     4   ar
     8     4     5   ar
     9     4    32    1
    10     5     6   ar
    11     5    33    1
    12     6     7   ar
    13     6    34    1
    14     7     8    1
    15     7    27   ar
    16     8     9    1
    17     8    35    1
    18     8    36    1
    19     9    26    1
    20     9    10    1
    21    10    11    1
    22    10    37    1
    23    10    38    1
    24    11    12    1
    25    11    39    1
    26    11    40    1
    27    12    14    1
    28    12    13    1
    29    12    26    1
    30    13    14    1
    31    13    41    1
    32    13    42    1
    33    14    15    1
    34    14    16    1
    35    16    17    2
    36    16    18   am
    37    18    19    1
    38    18    43    1
    39    19    20    1
    40    19    44    1
    41    19    45    1
    42    20    25   ar
    43    20    21   ar
    44    21    22   ar
    45    21    46    1
    46    22    23   ar
    47    22    47    1
    48    23    24   ar
    49    23    48    1
    50    24    25   ar
    51    25    49    1
    52    26    50    1
    53    26    51    1
    54    27    28    1
@<TRIPOS>SUBSTRUCTURE
     1 ZINC001141221454        1 TEMP              0 ****  ****    0 ROOT


##########                                Name:    ZINC000013809319
##########                DOCK_Rotatable_Bonds:                  10
##########                         Heavy_Atoms:                  30
##########                    Molecular_Weight:             407.469
##########                DOCK_Rotatable_Bonds:                  10
##########                       Formal_Charge:         -0.00999978
##########                     HBond_Acceptors:                   7
##########                        HBond_Donors:                   1
##########                         Heavy_Atoms:                  30
##########                          Grid_Score:          -32.009892
##########                     Grid_vdw_energy:          -30.112597
##########                      Grid_es_energy:           -1.897296
##########           Internal_energy_repulsive:           15.182682

@<TRIPOS>MOLECULE
ZINC000013809319
 55 57 1 0 0
SMALL
USER_CHARGES


@<TRIPOS>ATOM
      1 C1         -6.3463    1.8528   51.1828 C.3     1  ZINC000013809319   -0.1500
      2 C2         -7.0968    1.0009   52.2085 C.3     1  ZINC000013809319    0.0500
      3 O3         -8.4863    1.3329   52.1781 O.3     1  ZINC000013809319   -0.3100
      4 C4         -9.2709    0.7908   53.1447 C.ar    1  ZINC000013809319    0.1500
      5 C5        -10.1837    1.5878   53.8243 C.ar    1  ZINC000013809319   -0.2200
      6 C6        -10.9818    1.0409   54.8053 C.ar    1  ZINC000013809319   -0.0300
      7 C7        -10.8726   -0.3154   55.1160 C.ar    1  ZINC000013809319   -0.1100
      8 C8        -11.7286   -0.9066   56.1688 C.2     1  ZINC000013809319    0.2300
      9 C9        -13.0909   -0.6550   56.1835 C.2     1  ZINC000013809319   -0.2900
     10 C10       -13.8669   -1.2368   57.2011 C.2     1  ZINC000013809319    0.5300
     11 O11       -15.0706   -1.0433   57.2531 O.2     1  ZINC000013809319   -0.5400
     12 N12       -13.2548   -2.0139   58.1190 N.am    1  ZINC000013809319   -0.5100
     13 C13       -14.0397   -2.6329   59.1899 C.3     1  ZINC000013809319    0.0700
     14 C14       -14.2353   -1.6407   60.3072 C.2     1  ZINC000013809319    0.5000
     15 O15       -15.0168   -1.8820   61.2026 O.2     1  ZINC000013809319   -0.5200
     16 N16       -13.5417   -0.4851   60.3112 N.am    1  ZINC000013809319   -0.7200
     17 C17       -13.7305    0.4788   61.3983 C.3     1  ZINC000013809319    0.1300
     18 C18       -12.6821    1.5874   61.2846 C.3     1  ZINC000013809319   -0.0800
     19 C19       -11.3673    1.0932   61.8307 C.ar    1  ZINC000013809319   -0.1200
     20 C20       -10.5167    0.3598   61.0267 C.ar    1  ZINC000013809319   -0.0800
     21 C21        -9.3104   -0.0944   61.5275 C.ar    1  ZINC000013809319   -0.1500
     22 C22        -8.9523    0.1847   62.8332 C.ar    1  ZINC000013809319   -0.0800
     23 C23        -9.7994    0.9183   63.6414 C.ar    1  ZINC000013809319   -0.2100
     24 C24       -11.0077    1.3795   63.1399 C.ar    1  ZINC000013809319    0.1300
     25 O25       -11.8427    2.1013   63.9328 O.3     1  ZINC000013809319   -0.3100
     26 C26       -11.3696    2.4346   65.2394 C.3     1  ZINC000013809319    0.0300
     27 C27       -11.9246   -2.2238   58.0550 C.2     1  ZINC000013809319    0.3900
     28 N28       -11.1907   -1.6961   57.1149 N.2     1  ZINC000013809319   -0.5300
     29 C29        -9.9545   -1.1132   54.4312 C.ar    1  ZINC000013809319   -0.0500
     30 C30        -9.1633   -0.5608   53.4476 C.ar    1  ZINC000013809319   -0.1600
     31 H31        -6.7447    1.6577   50.1872 H       1  ZINC000013809319    0.0700
     32 H32        -6.4730    2.9080   51.4246 H       1  ZINC000013809319    0.0700
     33 H33        -5.2864    1.5996   51.2060 H       1  ZINC000013809319    0.0800
     34 H34        -6.9699   -0.0544   51.9668 H       1  ZINC000013809319    0.0600
     35 H35        -6.6982    1.1960   53.2041 H       1  ZINC000013809319    0.0600
     36 H36       -10.2674    2.6374   53.5836 H       1  ZINC000013809319    0.1300
     37 H37       -11.6909    1.6612   55.3336 H       1  ZINC000013809319    0.1400
     38 H38       -13.5457   -0.0269   55.4317 H       1  ZINC000013809319    0.1600
     39 H39       -15.0111   -2.9365   58.7995 H       1  ZINC000013809319    0.1300
     40 H40       -13.5110   -3.5074   59.5691 H       1  ZINC000013809319    0.1300
     41 H41       -12.9174   -0.2915   59.5944 H       1  ZINC000013809319    0.4000
     42 H42       -14.7277    0.9133   61.3294 H       1  ZINC000013809319    0.0700
     43 H43       -13.6203   -0.0285   62.3568 H       1  ZINC000013809319    0.0700
     44 H44       -12.5593    1.8655   60.2379 H       1  ZINC000013809319    0.0800
     45 H45       -13.0090    2.4565   61.8556 H       1  ZINC000013809319    0.0800
     46 H46       -10.7943    0.1405   60.0063 H       1  ZINC000013809319    0.1300
     47 H47        -8.6470   -0.6684   60.8974 H       1  ZINC000013809319    0.1300
     48 H48        -8.0097   -0.1714   63.2221 H       1  ZINC000013809319    0.1300
     49 H49        -9.5193    1.1357   64.6615 H       1  ZINC000013809319    0.1300
     50 H50       -10.4592    3.0281   65.1559 H       1  ZINC000013809319    0.0600
     51 H51       -12.1314    3.0098   65.7658 H       1  ZINC000013809319    0.1000
     52 H52       -11.1576    1.5201   65.7933 H       1  ZINC000013809319    0.0600
     53 H53       -11.4547   -2.8489   58.7999 H       1  ZINC000013809319    0.2000
     54 H54        -9.8674   -2.1631   54.6690 H       1  ZINC000013809319    0.1400
     55 H55        -8.4529   -1.1775   52.9171 H       1  ZINC000013809319    0.1400
@<TRIPOS>BOND
     1     1     2    1
     2     1    31    1
     3     1    32    1
     4     1    33    1
     5     2     3    1
     6     2    34    1
     7     2    35    1
     8     3     4    1
     9     4    30   ar
    10     4     5   ar
    11     5     6   ar
    12     5    36    1
    13     6     7   ar
    14     6    37    1
    15     7     8    1
    16     7    29   ar
    17     8    28    1
    18     8     9    2
    19     9    10    1
    20     9    38    1
    21    10    11    2
    22    10    12   am
    23    12    13    1
    24    12    27    1
    25    13    14    1
    26    13    39    1
    27    13    40    1
    28    14    15    2
    29    14    16   am
    30    16    17    1
    31    16    41    1
    32    17    18    1
    33    17    42    1
    34    17    43    1
    35    18    19    1
    36    18    44    1
    37    18    45    1
    38    19    24   ar
    39    19    20   ar
    40    20    21   ar
    41    20    46    1
    42    21    22   ar
    43    21    47    1
    44    22    23   ar
    45    22    48    1
    46    23    24   ar
    47    23    49    1
    48    24    25    1
    49    25    26    1
    50    26    50    1
    51    26    51    1
    52    26    52    1
    53    27    28    2
    54    27    53    1
    55    29    30   ar
    56    29    54    1
    57    30    55    1
@<TRIPOS>SUBSTRUCTURE
     1 ZINC000013809319        1 TEMP              0 ****  ****    0 ROOT


##########                                Name:    ZINC000766421809
##########                DOCK_Rotatable_Bonds:                   7
##########                         Heavy_Atoms:                  26
##########                    Molecular_Weight:             358.372
##########                DOCK_Rotatable_Bonds:                   7
##########                       Formal_Charge:         4.61936e-07
##########                     HBond_Acceptors:                   8
##########                        HBond_Donors:                   0
##########                         Heavy_Atoms:                  26
##########                          Grid_Score:          -31.986347
##########                     Grid_vdw_energy:          -33.157207
##########                      Grid_es_energy:            1.170860
##########           Internal_energy_repulsive:            8.023685

@<TRIPOS>MOLECULE
ZINC000766421809
 45 47 1 0 0
SMALL
USER_CHARGES


@<TRIPOS>ATOM
      1 C1         -8.1580   -0.2667   65.4697 C.3     1  ZINC000766421809   -0.0700
      2 C2         -8.7869    0.1122   64.1536 C.2     1  ZINC000766421809    0.0700
      3 N3         -9.8706    0.8287   63.9992 N.2     1  ZINC000766421809   -0.2900
      4 N4        -10.1205    0.9543   62.6267 N.pl3   1  ZINC000766421809   -0.3700
      5 C5        -11.2378    1.6796   62.0169 C.3     1  ZINC000766421809    0.1000
      6 C6         -9.1504    0.2890   61.9652 C.2     1  ZINC000766421809    0.0700
      7 C7         -9.0230    0.1598   60.4693 C.3     1  ZINC000766421809    0.1400
      8 O8         -9.7468   -1.0166   60.0217 O.3     1  ZINC000766421809   -0.3400
      9 C9         -9.0747   -1.8913   59.2567 C.2     1  ZINC000766421809    0.4700
     10 O10        -7.8670   -1.9150   59.2849 O.2     1  ZINC000766421809   -0.5000
     11 C11        -9.8265   -2.8436   58.3629 C.3     1  ZINC000766421809   -0.1100
     12 C12       -10.8710   -2.0691   57.5565 C.3     1  ZINC000766421809   -0.0200
     13 C13       -10.2117   -1.4337   56.3596 C.2     1  ZINC000766421809    0.1900
     14 N14        -9.3927   -0.4117   56.3739 N.2     1  ZINC000766421809   -0.4700
     15 C15        -9.0585   -0.1959   55.0814 C.2     1  ZINC000766421809    0.2200
     16 C16        -8.1477    0.8585   54.5712 C.ar    1  ZINC000766421809   -0.0300
     17 C17        -7.7737    1.9176   55.3959 C.ar    1  ZINC000766421809   -0.0500
     18 C18        -6.9262    2.8958   54.9177 C.ar    1  ZINC000766421809   -0.1500
     19 C19        -6.4476    2.8261   53.6194 C.ar    1  ZINC000766421809    0.1200
     20 F20        -5.6182    3.7862   53.1549 F       1  ZINC000766421809   -0.1300
     21 C21        -6.8166    1.7743   52.7960 C.ar    1  ZINC000766421809   -0.1200
     22 C22        -6.2920    1.7034   51.3850 C.3     1  ZINC000766421809   -0.1200
     23 C23        -7.6593    0.7893   53.2677 C.ar    1  ZINC000766421809   -0.0600
     24 N24        -9.6881   -1.0911   54.3654 N.2     1  ZINC000766421809   -0.3700
     25 O25       -10.3482   -1.8110   55.0845 O.3     1  ZINC000766421809    0.0900
     26 C26        -8.3094   -0.2365   62.8859 C.2     1  ZINC000766421809   -0.2400
     27 H27        -7.4411    0.4999   65.7639 H       1  ZINC000766421809    0.0800
     28 H28        -8.9327   -0.3512   66.2317 H       1  ZINC000766421809    0.0700
     29 H29        -7.6451   -1.2229   65.3653 H       1  ZINC000766421809    0.0800
     30 H30       -10.9459    2.7149   61.8406 H       1  ZINC000766421809    0.0800
     31 H31       -11.5018    1.2101   61.0691 H       1  ZINC000766421809    0.0900
     32 H32       -12.0970    1.6535   62.6870 H       1  ZINC000766421809    0.0900
     33 H33        -9.4395    1.0464   59.9912 H       1  ZINC000766421809    0.0900
     34 H34        -7.9709    0.0629   60.2013 H       1  ZINC000766421809    0.0900
     35 H35        -9.1287   -3.3299   57.6813 H       1  ZINC000766421809    0.1200
     36 H36       -10.3243   -3.5977   58.9725 H       1  ZINC000766421809    0.1200
     37 H37       -11.6512   -2.7525   57.2214 H       1  ZINC000766421809    0.1200
     38 H38       -11.3118   -1.2936   58.1829 H       1  ZINC000766421809    0.1200
     39 H39        -8.1470    1.9729   56.4079 H       1  ZINC000766421809    0.1500
     40 H40        -6.6358    3.7169   55.5561 H       1  ZINC000766421809    0.1500
     41 H41        -5.3559    1.1452   51.3731 H       1  ZINC000766421809    0.0800
     42 H42        -7.0224    1.2013   50.7505 H       1  ZINC000766421809    0.0800
     43 H43        -6.1183    2.7123   51.0109 H       1  ZINC000766421809    0.0700
     44 H44        -7.9464   -0.0300   52.6254 H       1  ZINC000766421809    0.1400
     45 H45        -7.4287   -0.8263   62.6787 H       1  ZINC000766421809    0.1500
@<TRIPOS>BOND
     1     1     2    1
     2     1    27    1
     3     1    28    1
     4     1    29    1
     5     2    26    1
     6     2     3    2
     7     3     4    1
     8     4     5    1
     9     4     6    1
    10     5    30    1
    11     5    31    1
    12     5    32    1
    13     6     7    1
    14     6    26    2
    15     7     8    1
    16     7    33    1
    17     7    34    1
    18     8     9    1
    19     9    10    2
    20     9    11    1
    21    11    12    1
    22    11    35    1
    23    11    36    1
    24    12    13    1
    25    12    37    1
    26    12    38    1
    27    13    25    1
    28    13    14    2
    29    14    15    1
    30    15    16    1
    31    15    24    2
    32    16    23   ar
    33    16    17   ar
    34    17    18   ar
    35    17    39    1
    36    18    19   ar
    37    18    40    1
    38    19    20    1
    39    19    21   ar
    40    21    22    1
    41    21    23   ar
    42    22    41    1
    43    22    42    1
    44    22    43    1
    45    23    44    1
    46    24    25    1
    47    26    45    1
@<TRIPOS>SUBSTRUCTURE
     1 ZINC000766421809        1 TEMP              0 ****  ****    0 ROOT


##########                                Name:    ZINC000193795672
##########                DOCK_Rotatable_Bonds:                  10
##########                         Heavy_Atoms:                  23
##########                    Molecular_Weight:              332.47
##########                DOCK_Rotatable_Bonds:                  10
##########                       Formal_Charge:        -2.98023e-07
##########                     HBond_Acceptors:                   6
##########                        HBond_Donors:                   3
##########                         Heavy_Atoms:                  23
##########                          Grid_Score:          -31.981102
##########                     Grid_vdw_energy:          -33.274857
##########                      Grid_es_energy:            1.293755
##########           Internal_energy_repulsive:            7.579947

@<TRIPOS>MOLECULE
ZINC000193795672
 47 48 1 0 0
SMALL
USER_CHARGES


@<TRIPOS>ATOM
      1 C1         -7.4537    0.6918   52.1281 C.3     1  <0>        -0.1000
      2 C2         -8.3704    0.0085   53.1099 C.ar    1  <0>        -0.2000
      3 C3         -8.4596    0.4626   54.4189 C.ar    1  <0>        -0.0300
      4 C4         -9.3133   -0.1925   55.2882 C.ar    1  <0>        -0.2400
      5 C5        -10.0493   -1.2777   54.8241 C.ar    1  <0>         0.4000
      6 N6        -10.9110   -1.9451   55.6869 N.pl3   1  <0>        -0.7300
      7 C7        -10.3696   -2.7831   56.7597 C.3     1  <0>         0.1300
      8 C8        -11.3650   -2.8315   57.9207 C.3     1  <0>        -0.1400
      9 C9        -10.6348   -2.5318   59.2313 C.3     1  <0>         0.1400
     10 N10       -10.8704   -1.1373   59.6138 N.am    1  <0>        -0.7500
     11 C11       -10.0907   -0.5530   60.5449 C.2     1  <0>         0.7100
     12 O12        -9.1907   -1.1826   61.0664 O.2     1  <0>        -0.5900
     13 N13       -10.3085    0.7294   60.8979 N.am    1  <0>        -0.7400
     14 C14        -9.4621    1.3640   61.9113 C.3     1  <0>         0.1700
     15 H15        -8.5537    0.7767   62.0457 H       1  <0>         0.0900
     16 C16        -9.0930    2.7771   61.4554 C.3     1  <0>        -0.1700
     17 C17       -10.2223    1.4381   63.2371 C.3     1  <0>        -0.0600
     18 C18        -9.3803    0.8374   64.3332 C.2     1  <0>        -0.1700
     19 C19        -9.2549    1.3325   65.5654 C.2     1  <0>        -0.1400
     20 C20        -8.4254    0.6075   66.4035 C.2     1  <0>        -0.1300
     21 C21        -7.8773   -0.4763   65.8520 C.2     1  <0>        -0.2100
     22 S22        -8.4189   -0.6280   64.1855 S.3     1  <0>         0.0900
     23 N23        -9.9368   -1.6804   53.5677 N.ar    1  <0>        -0.5400
     24 C24        -9.1342   -1.0718   52.7154 C.ar    1  <0>         0.1500
     25 H25        -7.9941    1.4927   51.6233 H       1  <0>         0.0700
     26 H26        -6.5984    1.1092   52.6593 H       1  <0>         0.0600
     27 H27        -7.1059   -0.0323   51.3913 H       1  <0>         0.0700
     28 H28        -7.8752    1.3080   54.7512 H       1  <0>         0.1300
     29 H29        -9.4069    0.1340   56.3135 H       1  <0>         0.1300
     30 H30       -11.8709   -1.8560   55.5786 H       1  <0>         0.4000
     31 H31       -10.2015   -3.7920   56.3830 H       1  <0>         0.0700
     32 H32        -9.4259   -2.3631   57.1076 H       1  <0>         0.0700
     33 H33       -12.1455   -2.0875   57.7613 H       1  <0>         0.0800
     34 H34       -11.8138   -3.8234   57.9733 H       1  <0>         0.0800
     35 H35       -11.0084   -3.1914   60.0145 H       1  <0>         0.0700
     36 H36        -9.5656   -2.6961   59.0974 H       1  <0>         0.0700
     37 H37       -11.5876   -0.6346   59.1968 H       1  <0>         0.4000
     38 H38       -11.0258    1.2321   60.4810 H       1  <0>         0.3900
     39 H39       -10.0013    3.3644   61.3211 H       1  <0>         0.0600
     40 H40        -8.4633    3.2493   62.2095 H       1  <0>         0.0700
     41 H41        -8.5514    2.7243   60.5110 H       1  <0>         0.0700
     42 H42       -10.4383    2.4798   63.4743 H       1  <0>         0.1000
     43 H43       -11.1568    0.8836   63.1515 H       1  <0>         0.0800
     44 H44        -9.7618    2.2310   65.8848 H       1  <0>         0.1400
     45 H45        -8.2361    0.8976   67.4265 H       1  <0>         0.1400
     46 H46        -7.2065   -1.1584   66.3532 H       1  <0>         0.1600
     47 H47        -9.0681   -1.4282   51.6980 H       1  <0>         0.1500
@<TRIPOS>BOND
     1     1     2    1
     2     1    25    1
     3     1    26    1
     4     1    27    1
     5     2    24   ar
     6     2     3   ar
     7     3     4   ar
     8     3    28    1
     9     4     5   ar
    10     4    29    1
    11     5     6    1
    12     5    23   ar
    13     6     7    1
    14     6    30    1
    15     7     8    1
    16     7    31    1
    17     7    32    1
    18     8     9    1
    19     8    33    1
    20     8    34    1
    21     9    10    1
    22     9    35    1
    23     9    36    1
    24    10    11   am
    25    10    37    1
    26    11    12    2
    27    11    13   am
    28    13    14    1
    29    13    38    1
    30    14    15    1
    31    14    16    1
    32    14    17    1
    33    16    39    1
    34    16    40    1
    35    16    41    1
    36    17    18    1
    37    17    42    1
    38    17    43    1
    39    18    22    1
    40    18    19    2
    41    19    20    1
    42    19    44    1
    43    20    21    2
    44    20    45    1
    45    21    22    1
    46    21    46    1
    47    23    24   ar
    48    24    47    1
@<TRIPOS>SUBSTRUCTURE
     1 <0>         1 TEMP              0 ****  ****    0 ROOT


##########                                Name:    ZINC000277085192
##########                DOCK_Rotatable_Bonds:                   4
##########                         Heavy_Atoms:                  23
##########                    Molecular_Weight:             335.747
##########                DOCK_Rotatable_Bonds:                   4
##########                       Formal_Charge:         5.96046e-08
##########                     HBond_Acceptors:                   8
##########                        HBond_Donors:                   2
##########                         Heavy_Atoms:                  23
##########                          Grid_Score:          -31.952457
##########                     Grid_vdw_energy:          -28.698332
##########                      Grid_es_energy:           -3.254125
##########           Internal_energy_repulsive:            7.406356

@<TRIPOS>MOLECULE
ZINC000277085192
 37 39 1 0 0
SMALL
USER_CHARGES


@<TRIPOS>ATOM
      1 O1        -10.1566   -1.5970   60.9421 O.2     1  ZINC000277085192   -0.5000
      2 C2         -9.1121   -1.3097   60.3966 C.2     1  ZINC000277085192    0.5000
      3 C3         -8.7179   -1.9964   59.1143 C.3     1  ZINC000277085192    0.1100
      4 N4         -9.2882   -1.2708   57.9766 N.am    1  ZINC000277085192   -0.6000
      5 C5         -9.0826    0.1745   57.8658 C.3     1  ZINC000277085192    0.1100
      6 C6         -8.9182    0.5563   56.3930 C.3     1  ZINC000277085192   -0.1600
      7 C7         -9.9974   -0.1171   55.5830 C.2     1  ZINC000277085192    0.5200
      8 O8        -10.4688    0.4426   54.6165 O.2     1  ZINC000277085192   -0.5000
      9 N9        -10.4366   -1.3399   55.9334 N.am    1  ZINC000277085192   -0.6700
     10 C10        -9.9877   -1.9417   57.0469 C.2     1  ZINC000277085192    0.7200
     11 O11       -10.2275   -3.1202   57.2220 O.2     1  ZINC000277085192   -0.5500
     12 N12        -8.3066   -0.3724   60.9342 N.am    1  ZINC000277085192   -0.6700
     13 C13        -8.6727    0.2657   62.1255 C.ar    1  ZINC000277085192    0.1400
     14 C14        -8.3686   -0.3155   63.3426 C.ar    1  ZINC000277085192   -0.0400
     15 C15        -8.7358    0.3233   64.5371 C.ar    1  ZINC000277085192   -0.1700
     16 C16        -9.4074    1.5452   64.4826 C.ar    1  ZINC000277085192   -0.0500
     17 C17        -9.7056    2.1166   63.2598 C.ar    1  ZINC000277085192   -0.0900
     18 C18        -9.3379    1.4875   62.0846 C.ar    1  ZINC000277085192   -0.0300
     19 Cl19       -9.7186    2.2161   60.5556 Cl      1  ZINC000277085192   -0.0500
     20 C20        -9.6917    2.0292   65.8845 C.3     1  ZINC000277085192   -0.0800
     21 C21        -9.1190    0.9662   66.8320 C.3     1  ZINC000277085192   -0.1700
     22 C22        -8.5256   -0.0915   65.9336 C.2     1  ZINC000277085192    0.4100
     23 O23        -7.9715   -1.1064   66.2988 O.2     1  ZINC000277085192   -0.4300
     24 H24        -7.6314   -2.0103   59.0287 H       1  ZINC000277085192    0.1300
     25 H25        -9.0952   -3.0190   59.1190 H       1  ZINC000277085192    0.1200
     26 H26        -9.9438    0.6969   58.2824 H       1  ZINC000277085192    0.0800
     27 H27        -8.1854    0.4570   58.4166 H       1  ZINC000277085192    0.1000
     28 H28        -9.0033    1.6377   56.2853 H       1  ZINC000277085192    0.1300
     29 H29        -7.9402    0.2301   56.0391 H       1  ZINC000277085192    0.1200
     30 H30       -11.0838   -1.7942   55.3716 H       1  ZINC000277085192    0.4300
     31 H31        -7.4731   -0.1399   60.4958 H       1  ZINC000277085192    0.4200
     32 H32        -7.8485   -1.2615   63.3741 H       1  ZINC000277085192    0.1500
     33 H33       -10.2258    3.0623   63.2221 H       1  ZINC000277085192    0.1500
     34 H34        -9.2011    2.9873   66.0564 H       1  ZINC000277085192    0.1000
     35 H35       -10.7667    2.1260   66.0363 H       1  ZINC000277085192    0.1000
     36 H36        -8.3456    1.4018   67.4647 H       1  ZINC000277085192    0.1100
     37 H37        -9.9131    0.5393   67.4446 H       1  ZINC000277085192    0.1100
@<TRIPOS>BOND
     1     1     2    2
     2     2     3    1
     3     2    12   am
     4     3     4    1
     5     3    24    1
     6     3    25    1
     7     4    10   am
     8     4     5    1
     9     5     6    1
    10     5    26    1
    11     5    27    1
    12     6     7    1
    13     6    28    1
    14     6    29    1
    15     7     8    2
    16     7     9   am
    17     9    10   am
    18     9    30    1
    19    10    11    2
    20    12    13    1
    21    12    31    1
    22    13    18   ar
    23    13    14   ar
    24    14    15   ar
    25    14    32    1
    26    15    22    1
    27    15    16   ar
    28    16    17   ar
    29    16    20    1
    30    17    18   ar
    31    17    33    1
    32    18    19    1
    33    20    21    1
    34    20    34    1
    35    20    35    1
    36    21    22    1
    37    21    36    1
    38    21    37    1
    39    22    23    2
@<TRIPOS>SUBSTRUCTURE
     1 ZINC000277085192        1 TEMP              0 ****  ****    0 ROOT


##########                                Name:    ZINC001018437438
##########                DOCK_Rotatable_Bonds:                   8
##########                         Heavy_Atoms:                  24
##########                    Molecular_Weight:              333.39
##########                DOCK_Rotatable_Bonds:                   8
##########                       Formal_Charge:        -4.17233e-07
##########                     HBond_Acceptors:                   8
##########                        HBond_Donors:                   4
##########                         Heavy_Atoms:                  24
##########                          Grid_Score:          -31.938244
##########                     Grid_vdw_energy:          -32.146229
##########                      Grid_es_energy:            0.207986
##########           Internal_energy_repulsive:           91.049767

@<TRIPOS>MOLECULE
ZINC001018437438
 47 49 1 0 0
SMALL
USER_CHARGES


@<TRIPOS>ATOM
      1 C1        -10.8768   -2.3641   56.3848 C.3     1  ZINC001018437438   -0.1400
      2 C2        -10.2318   -2.0969   57.7462 C.3     1  ZINC001018437438    0.1400
      3 H3         -9.4772   -2.8570   57.9485 H       1  ZINC001018437438    0.0700
      4 C4         -9.5772   -0.7119   57.7413 C.3     1  ZINC001018437438   -0.1300
      5 C5         -9.0561   -0.3933   59.1446 C.3     1  ZINC001018437438   -0.1300
      6 C6        -10.2253   -0.3715   60.1319 C.3     1  ZINC001018437438    0.1300
      7 H7        -10.9546    0.3742   59.8157 H       1  ZINC001018437438    0.1000
      8 N8         -9.7300   -0.0349   61.4689 N.am    1  ZINC001018437438   -0.7200
      9 C9        -10.5097    0.6592   62.3214 C.2     1  ZINC001018437438    0.6000
     10 O10       -11.6252    1.0048   61.9812 O.2     1  ZINC001018437438   -0.5100
     11 C11       -10.0115    0.9989   63.6638 C.2     1  ZINC001018437438   -0.0400
     12 C12        -8.9755    0.3844   64.3454 C.2     1  ZINC001018437438   -0.1400
     13 C13        -8.8850    1.0575   65.5660 C.2     1  ZINC001018437438    0.0600
     14 C14        -7.9033    0.7634   66.6708 C.3     1  ZINC001018437438   -0.0800
     15 C15        -7.7142   -0.6995   67.0769 C.3     1  ZINC001018437438   -0.1700
     16 C16        -6.6169    0.0251   66.2947 C.3     1  ZINC001018437438   -0.1600
     17 N17        -9.8038    1.9893   65.5795 N.2     1  ZINC001018437438   -0.2600
     18 N18       -10.4751    1.9876   64.4843 N.pl3   1  ZINC001018437438   -0.3800
     19 C19       -10.8872   -1.7526   60.1639 C.3     1  ZINC001018437438    0.1000
     20 N20       -11.2607   -2.1331   58.7943 N.am    1  ZINC001018437438   -0.6100
     21 C21       -12.5239   -2.5030   58.5047 C.2     1  ZINC001018437438    0.5200
     22 O22       -12.8206   -2.8102   57.3696 O.2     1  ZINC001018437438   -0.4800
     23 C23       -13.5676   -2.5349   59.5914 C.3     1  ZINC001018437438   -0.1700
     24 C24       -14.7909   -3.2595   59.0917 C.2     1  ZINC001018437438    0.5200
     25 N25       -16.0152   -2.7336   59.2944 N.am    1  ZINC001018437438   -0.8600
     26 O26       -14.6737   -4.3155   58.5072 O.2     1  ZINC001018437438   -0.5000
     27 H27       -11.6982   -1.6649   56.2283 H       1  ZINC001018437438    0.0700
     28 H28       -10.1334   -2.2331   55.5985 H       1  ZINC001018437438    0.0500
     29 H29       -11.2583   -3.3848   56.3576 H       1  ZINC001018437438    0.0800
     30 H30        -8.7473   -0.7042   57.0346 H       1  ZINC001018437438    0.0900
     31 H31       -10.3126    0.0371   57.4476 H       1  ZINC001018437438    0.0700
     32 H32        -8.3391   -1.1563   59.4476 H       1  ZINC001018437438    0.0700
     33 H33        -8.5680    0.5812   59.1382 H       1  ZINC001018437438    0.0800
     34 H34        -8.8408   -0.3115   61.7406 H       1  ZINC001018437438    0.4000
     35 H35        -8.3664   -0.4403   64.0059 H       1  ZINC001018437438    0.1700
     36 H36        -7.8400    1.5165   67.4563 H       1  ZINC001018437438    0.1200
     37 H37        -7.5267   -0.9093   68.1300 H       1  ZINC001018437438    0.1000
     38 H38        -8.3000   -1.4493   66.5451 H       1  ZINC001018437438    0.1000
     39 H39        -6.4808   -0.2478   65.2483 H       1  ZINC001018437438    0.1000
     40 H40        -5.7077    0.2922   66.8332 H       1  ZINC001018437438    0.1000
     41 H41       -11.2044    2.5918   64.2749 H       1  ZINC001018437438    0.4400
     42 H42       -10.1865   -2.4844   60.5659 H       1  ZINC001018437438    0.0700
     43 H43       -11.7792   -1.7159   60.7892 H       1  ZINC001018437438    0.0900
     44 H44       -13.1688   -3.0538   60.4630 H       1  ZINC001018437438    0.1200
     45 H45       -13.8364   -1.5153   59.8671 H       1  ZINC001018437438    0.1200
     46 H46       -16.8028   -3.2002   58.9738 H       1  ZINC001018437438    0.4000
     47 H47       -16.1087   -1.8882   59.7608 H       1  ZINC001018437438    0.4000
@<TRIPOS>BOND
     1     1     2    1
     2     1    27    1
     3     1    28    1
     4     1    29    1
     5     2     3    1
     6     2    20    1
     7     2     4    1
     8     4     5    1
     9     4    30    1
    10     4    31    1
    11     5     6    1
    12     5    32    1
    13     5    33    1
    14     6     7    1
    15     6     8    1
    16     6    19    1
    17     8     9   am
    18     8    34    1
    19     9    10    2
    20     9    11    1
    21    11    18    1
    22    11    12    2
    23    12    13    1
    24    12    35    1
    25    13    14    1
    26    13    17    2
    27    14    16    1
    28    14    15    1
    29    14    36    1
    30    15    16    1
    31    15    37    1
    32    15    38    1
    33    16    39    1
    34    16    40    1
    35    17    18    1
    36    18    41    1
    37    19    20    1
    38    19    42    1
    39    19    43    1
    40    20    21   am
    41    21    22    2
    42    21    23    1
    43    23    24    1
    44    23    44    1
    45    23    45    1
    46    24    25   am
    47    24    26    2
    48    25    46    1
    49    25    47    1
@<TRIPOS>SUBSTRUCTURE
     1 ZINC001018437438        1 TEMP              0 ****  ****    0 ROOT


##########                                Name:    ZINC000970996691
##########                DOCK_Rotatable_Bonds:                   7
##########                         Heavy_Atoms:                  24
##########                    Molecular_Weight:             334.462
##########                DOCK_Rotatable_Bonds:                   7
##########                       Formal_Charge:          -0.0199999
##########                     HBond_Acceptors:                   6
##########                        HBond_Donors:                   0
##########                         Heavy_Atoms:                  24
##########                          Grid_Score:          -31.935923
##########                     Grid_vdw_energy:          -31.654448
##########                      Grid_es_energy:           -0.281475
##########           Internal_energy_repulsive:           16.898520

@<TRIPOS>MOLECULE
ZINC000970996691
 54 56 1 0 0
SMALL
USER_CHARGES


@<TRIPOS>ATOM
      1 C1         -8.7554   -0.0557   63.8138 C.3     1  ZINC000970996691   -0.1500
      2 C2         -9.0781    1.0626   62.8208 C.3     1  ZINC000970996691   -0.1200
      3 C3        -10.5459    0.9634   62.4003 C.3     1  ZINC000970996691   -0.0300
      4 C4        -10.6856   -0.0582   61.3013 C.2     1  ZINC000970996691    0.1800
      5 N5        -11.6169   -0.0904   60.3787 N.2     1  ZINC000970996691   -0.4700
      6 C6        -11.3414   -1.1688   59.6236 C.2     1  ZINC000970996691    0.1800
      7 C7        -12.1237   -1.6425   58.4259 C.3     1  ZINC000970996691    0.1500
      8 N8        -11.1953   -2.1161   57.3908 N.3     1  ZINC000970996691   -0.5200
      9 C9        -11.8194   -3.1532   56.5584 C.3     1  ZINC000970996691    0.0200
     10 C10       -10.7118   -1.0001   56.5668 C.3     1  ZINC000970996691    0.0700
     11 H11       -11.5190   -0.3017   56.3462 H       1  ZINC000970996691    0.0600
     12 C12        -9.5226   -0.2770   57.2524 C.3     1  ZINC000970996691   -0.1300
     13 C13        -8.7511    0.3266   56.0599 C.3     1  ZINC000970996691    0.1000
     14 N14        -9.1158   -0.4500   54.8660 N.am    1  ZINC000970996691   -0.6200
     15 C15        -8.6676   -0.2246   53.6151 C.2     1  ZINC000970996691    0.5300
     16 O16        -9.0371   -0.9319   52.7018 O.2     1  ZINC000970996691   -0.5300
     17 C17        -7.7072    0.9064   53.3512 C.3     1  ZINC000970996691   -0.1000
     18 C18        -6.9053    0.6091   52.0827 C.3     1  ZINC000970996691   -0.1100
     19 C19        -5.9302    1.7574   51.8148 C.3     1  ZINC000970996691   -0.1200
     20 C20        -6.7133    3.0586   51.6298 C.3     1  ZINC000970996691   -0.1200
     21 C21        -7.5154    3.3561   52.8984 C.3     1  ZINC000970996691   -0.1200
     22 C22        -8.4904    2.2078   53.1662 C.3     1  ZINC000970996691   -0.1000
     23 C23       -10.0531   -1.5169   55.2634 C.3     1  ZINC000970996691    0.1200
     24 N24       -10.2764   -1.7271   60.1164 N.2     1  ZINC000970996691   -0.3800
     25 O25        -9.8806   -1.1012   61.0772 O.3     1  ZINC000970996691    0.0800
     26 H26        -9.3926    0.0435   64.6925 H       1  ZINC000970996691    0.0600
     27 H27        -8.9339   -1.0225   63.3428 H       1  ZINC000970996691    0.0600
     28 H28        -7.7098    0.0148   64.1134 H       1  ZINC000970996691    0.0600
     29 H29        -8.8996    2.0293   63.2917 H       1  ZINC000970996691    0.0700
     30 H30        -8.4409    0.9634   61.9421 H       1  ZINC000970996691    0.0700
     31 H31       -11.1493    0.6612   63.2562 H       1  ZINC000970996691    0.1100
     32 H32       -10.8869    1.9338   62.0398 H       1  ZINC000970996691    0.1000
     33 H33       -12.7840   -2.4574   58.7223 H       1  ZINC000970996691    0.0700
     34 H34       -12.7182   -0.8184   58.0313 H       1  ZINC000970996691    0.1100
     35 H35       -12.7056   -2.7447   56.0727 H       1  ZINC000970996691    0.0300
     36 H36       -11.1104   -3.4861   55.8004 H       1  ZINC000970996691    0.0800
     37 H37       -12.1053   -3.9984   57.1847 H       1  ZINC000970996691    0.0700
     38 H38        -9.8806    0.5088   57.9175 H       1  ZINC000970996691    0.0800
     39 H39        -8.8994   -0.9883   57.7946 H       1  ZINC000970996691    0.0900
     40 H40        -9.0353    1.3701   55.9245 H       1  ZINC000970996691    0.0700
     41 H41        -7.6780    0.2524   56.2367 H       1  ZINC000970996691    0.0700
     42 H42        -7.0262    1.0092   54.1960 H       1  ZINC000970996691    0.0900
     43 H43        -6.3473   -0.3180   52.2146 H       1  ZINC000970996691    0.0700
     44 H44        -7.5863    0.5063   51.2379 H       1  ZINC000970996691    0.0700
     45 H45        -5.2492    1.8602   52.6596 H       1  ZINC000970996691    0.0600
     46 H46        -5.3588    1.5455   50.9112 H       1  ZINC000970996691    0.0700
     47 H47        -6.0187    3.8768   51.4390 H       1  ZINC000970996691    0.0600
     48 H48        -7.3945    2.9558   50.7851 H       1  ZINC000970996691    0.0600
     49 H49        -6.8343    3.4589   53.7431 H       1  ZINC000970996691    0.0600
     50 H50        -8.0733    4.2831   52.7666 H       1  ZINC000970996691    0.0700
     51 H51        -9.1715    2.1049   52.3215 H       1  ZINC000970996691    0.0800
     52 H52        -9.0618    2.4196   54.0700 H       1  ZINC000970996691    0.0600
     53 H53        -9.5133   -2.4445   55.4540 H       1  ZINC000970996691    0.0800
     54 H54       -10.8065   -1.6674   54.4902 H       1  ZINC000970996691    0.0800
@<TRIPOS>BOND
     1     1     2    1
     2     1    26    1
     3     1    27    1
     4     1    28    1
     5     2     3    1
     6     2    29    1
     7     2    30    1
     8     3     4    1
     9     3    31    1
    10     3    32    1
    11     4    25    1
    12     4     5    2
    13     5     6    1
    14     6     7    1
    15     6    24    2
    16     7     8    1
    17     7    33    1
    18     7    34    1
    19     8     9    1
    20     8    10    1
    21     9    35    1
    22     9    36    1
    23     9    37    1
    24    10    11    1
    25    10    23    1
    26    10    12    1
    27    12    13    1
    28    12    38    1
    29    12    39    1
    30    13    14    1
    31    13    40    1
    32    13    41    1
    33    14    15   am
    34    14    23    1
    35    15    16    2
    36    15    17    1
    37    17    22    1
    38    17    18    1
    39    17    42    1
    40    18    19    1
    41    18    43    1
    42    18    44    1
    43    19    20    1
    44    19    45    1
    45    19    46    1
    46    20    21    1
    47    20    47    1
    48    20    48    1
    49    21    22    1
    50    21    49    1
    51    21    50    1
    52    22    51    1
    53    22    52    1
    54    23    53    1
    55    23    54    1
    56    24    25    1
@<TRIPOS>SUBSTRUCTURE
     1 ZINC000970996691        1 TEMP              0 ****  ****    0 ROOT


##########                                Name:    ZINC000547864253
##########                DOCK_Rotatable_Bonds:                   6
##########                         Heavy_Atoms:                  30
##########                    Molecular_Weight:             422.548
##########                DOCK_Rotatable_Bonds:                   6
##########                       Formal_Charge:           0.0300002
##########                     HBond_Acceptors:                   6
##########                        HBond_Donors:                   2
##########                         Heavy_Atoms:                  30
##########                          Grid_Score:          -31.916840
##########                     Grid_vdw_energy:          -31.947939
##########                      Grid_es_energy:            0.031099
##########           Internal_energy_repulsive:           11.788414

@<TRIPOS>MOLECULE
ZINC000547864253
 56 60 1 0 0
SMALL
USER_CHARGES


@<TRIPOS>ATOM
      1 O1         -9.8431   -2.5167   56.5187 O.2     1  ZINC000547864253   -0.5300
      2 C2        -10.2810   -1.5161   57.0458 C.2     1  ZINC000547864253    0.5400
      3 N3        -10.3128   -0.3540   56.3639 N.am    1  ZINC000547864253   -0.7200
      4 C4         -9.8129   -0.2982   54.9879 C.3     1  ZINC000547864253    0.1300
      5 C5         -8.9972    0.9815   54.7932 C.3     1  ZINC000547864253    0.0200
      6 H6         -8.4887    1.2333   55.7239 H       1  ZINC000547864253    0.0900
      7 C7         -7.9766    0.7660   53.7056 C.2     1  ZINC000547864253   -0.1600
      8 C8         -7.9794   -0.2170   52.7914 C.2     1  ZINC000547864253    0.0600
      9 N9         -6.8946   -0.0905   51.9670 N.pl3   1  ZINC000547864253   -0.5900
     10 C10        -6.1482    1.0049   52.3401 C.ar    1  ZINC000547864253    0.1000
     11 C11        -4.9764    1.5755   51.8548 C.ar    1  ZINC000547864253   -0.1300
     12 C12        -4.4623    2.7020   52.4594 C.ar    1  ZINC000547864253   -0.1000
     13 C13        -5.1023    3.2747   53.5495 C.ar    1  ZINC000547864253   -0.1400
     14 C14        -6.2549    2.7305   54.0427 C.ar    1  ZINC000547864253   -0.0700
     15 C15        -6.7966    1.5931   53.4416 C.ar    1  ZINC000547864253   -0.1000
     16 C16        -9.9172    2.1092   54.4025 C.ar    1  ZINC000547864253   -0.0700
     17 C17       -10.4892    2.9041   55.3780 C.ar    1  ZINC000547864253   -0.1100
     18 C18       -11.3332    3.9386   55.0196 C.ar    1  ZINC000547864253   -0.1200
     19 C19       -11.6049    4.1783   53.6856 C.ar    1  ZINC000547864253   -0.1200
     20 C20       -11.0322    3.3840   52.7100 C.ar    1  ZINC000547864253   -0.1100
     21 C21       -10.1848    2.3522   53.0682 C.ar    1  ZINC000547864253   -0.1200
     22 C22       -10.7952   -1.5735   58.4612 C.3     1  ZINC000547864253   -0.1700
     23 H23       -10.3689   -0.8406   59.1463 H       1  ZINC000547864253    0.1400
     24 C24       -11.1486   -2.9493   59.0290 C.3     1  ZINC000547864253   -0.1300
     25 C25       -12.2619   -1.9625   58.6652 C.3     1  ZINC000547864253   -0.1400
     26 C26       -13.0126   -1.2929   59.8171 C.3     1  ZINC000547864253   -0.0700
     27 C27       -14.0860   -2.2419   60.3542 C.3     1  ZINC000547864253   -0.6000
     28 S28       -15.2658   -2.6214   59.0274 S.o2    1  ZINC000547864253    2.4200
     29 O29       -16.1332   -3.6550   59.4730 O.2     1  ZINC000547864253   -0.9400
     30 O30       -15.8228   -1.4033   58.5531 O.2     1  ZINC000547864253   -0.9300
     31 C31       -14.1689   -3.2964   57.7476 C.3     1  ZINC000547864253   -0.6000
     32 C32       -13.0890   -2.2646   57.4149 C.3     1  ZINC000547864253   -0.0700
     33 H33       -10.6667    0.4454   56.7841 H       1  ZINC000547864253    0.4000
     34 H34        -9.1807   -1.1649   54.7957 H       1  ZINC000547864253    0.0800
     35 H35       -10.6545   -0.3014   54.2952 H       1  ZINC000547864253    0.0700
     36 H36        -8.7269   -0.9929   52.7177 H       1  ZINC000547864253    0.1700
     37 H37        -6.6829   -0.6840   51.2296 H       1  ZINC000547864253    0.4200
     38 H38        -4.4707    1.1370   51.0072 H       1  ZINC000547864253    0.1200
     39 H39        -3.5521    3.1433   52.0813 H       1  ZINC000547864253    0.1300
     40 H40        -4.6860    4.1574   54.0121 H       1  ZINC000547864253    0.1200
     41 H41        -6.7473    3.1817   54.8914 H       1  ZINC000547864253    0.1200
     42 H42       -10.2770    2.7168   56.4203 H       1  ZINC000547864253    0.1200
     43 H43       -11.7807    4.5592   55.7819 H       1  ZINC000547864253    0.1200
     44 H44       -12.2649    4.9861   53.4056 H       1  ZINC000547864253    0.1200
     45 H45       -11.2447    3.5711   51.6677 H       1  ZINC000547864253    0.1200
     46 H46        -9.7373    1.7316   52.3060 H       1  ZINC000547864253    0.1200
     47 H47       -11.0092   -3.8131   58.3790 H       1  ZINC000547864253    0.1100
     48 H48       -10.9551   -3.1216   60.0878 H       1  ZINC000547864253    0.1100
     49 H49       -12.3108   -1.0504   60.6150 H       1  ZINC000547864253    0.0900
     50 H50       -13.4840   -0.3776   59.4592 H       1  ZINC000547864253    0.0900
     51 H51       -13.6175   -3.1636   60.6994 H       1  ZINC000547864253    0.1400
     52 H52       -14.6107   -1.7666   61.1830 H       1  ZINC000547864253    0.1400
     53 H53       -13.6997   -4.2093   58.1146 H       1  ZINC000547864253    0.1400
     54 H54       -14.7485   -3.5189   56.8516 H       1  ZINC000547864253    0.1400
     55 H55       -13.5603   -1.3476   57.0615 H       1  ZINC000547864253    0.0900
     56 H56       -12.4373   -2.6602   56.6358 H       1  ZINC000547864253    0.0900
@<TRIPOS>BOND
     1     1     2    2
     2     2     3   am
     3     2    22    1
     4     3     4    1
     5     3    33    1
     6     4     5    1
     7     4    34    1
     8     4    35    1
     9     5     6    1
    10     5     7    1
    11     5    16    1
    12     7    15    1
    13     7     8    2
    14     8     9    1
    15     8    36    1
    16     9    10    1
    17     9    37    1
    18    10    15   ar
    19    10    11   ar
    20    11    12   ar
    21    11    38    1
    22    12    13   ar
    23    12    39    1
    24    13    14   ar
    25    13    40    1
    26    14    15   ar
    27    14    41    1
    28    16    21   ar
    29    16    17   ar
    30    17    18   ar
    31    17    42    1
    32    18    19   ar
    33    18    43    1
    34    19    20   ar
    35    19    44    1
    36    20    21   ar
    37    20    45    1
    38    21    46    1
    39    22    23    1
    40    22    25    1
    41    22    24    1
    42    24    25    1
    43    24    47    1
    44    24    48    1
    45    25    32    1
    46    25    26    1
    47    26    27    1
    48    26    49    1
    49    26    50    1
    50    27    28    1
    51    27    51    1
    52    27    52    1
    53    28    29    2
    54    28    30    2
    55    28    31    1
    56    31    32    1
    57    31    53    1
    58    31    54    1
    59    32    55    1
    60    32    56    1
@<TRIPOS>SUBSTRUCTURE
     1 ZINC000547864253        1 TEMP              0 ****  ****    0 ROOT


##########                                Name:    ZINC000744839011
##########                DOCK_Rotatable_Bonds:                  10
##########                         Heavy_Atoms:                  24
##########                    Molecular_Weight:              378.83
##########                DOCK_Rotatable_Bonds:                  10
##########                       Formal_Charge:           0.0300002
##########                     HBond_Acceptors:                   9
##########                        HBond_Donors:                   0
##########                         Heavy_Atoms:                  24
##########                          Grid_Score:          -31.915331
##########                     Grid_vdw_energy:          -32.226101
##########                      Grid_es_energy:            0.310771
##########           Internal_energy_repulsive:           13.771134

@<TRIPOS>MOLECULE
ZINC000744839011
 43 43 1 0 0
SMALL
USER_CHARGES


@<TRIPOS>ATOM
      1 C1         -4.5302    2.3042   51.3859 C.3     1  ZINC000744839011    0.0400
      2 O2         -5.4572    1.3570   51.9792 O.3     1  ZINC000744839011   -0.3600
      3 C3         -6.6632    1.2314   51.3916 C.2     1  ZINC000744839011    0.5100
      4 O4         -6.8205    1.5964   50.2433 O.2     1  ZINC000744839011   -0.5000
      5 C5         -7.7923    0.6513   52.1421 C.ar    1  ZINC000744839011   -0.1600
      6 C6         -8.0175   -0.7277   52.1141 C.ar    1  ZINC000744839011   -0.0100
      7 C7         -9.0726   -1.2661   52.8166 C.ar    1  ZINC000744839011   -0.2100
      8 C8         -9.9133   -0.4405   53.5530 C.ar    1  ZINC000744839011    0.1800
      9 O9        -10.9520   -0.9753   54.2438 O.3     1  ZINC000744839011   -0.2900
     10 C10       -10.6433   -1.6282   55.4769 C.3     1  ZINC000744839011    0.0500
     11 C11       -11.7433   -1.3341   56.4989 C.3     1  ZINC000744839011    0.0600
     12 O12       -11.4040   -1.9542   57.7672 O.3     1  ZINC000744839011   -0.3400
     13 C13       -10.2396   -1.5939   58.3296 C.2     1  ZINC000744839011    0.5000
     14 O14        -9.5257   -2.4308   58.8294 O.2     1  ZINC000744839011   -0.4900
     15 C15        -9.8228   -0.1458   58.3374 C.3     1  ZINC000744839011   -0.6400
     16 S16        -8.5352    0.1061   59.5901 S.o2    1  ZINC000744839011    2.4400
     17 O17        -7.4821   -0.8170   59.3489 O.2     1  ZINC000744839011   -0.9100
     18 O18        -8.2385    1.4939   59.6616 O.2     1  ZINC000744839011   -0.9100
     19 C19        -9.3931   -0.3807   61.1125 C.3     1  ZINC000744839011   -0.5700
     20 C20        -8.4176   -0.3185   62.2897 C.3     1  ZINC000744839011   -0.1500
     21 C21       -10.5612    0.5741   61.3672 C.3     1  ZINC000744839011   -0.1500
     22 C22        -9.6929    0.9329   53.5844 C.ar    1  ZINC000744839011   -0.0800
     23 Cl23      -10.7464    1.9592   54.5069 Cl      1  ZINC000744839011   -0.0400
     24 C24        -8.6369    1.4787   52.8885 C.ar    1  ZINC000744839011   -0.0100
     25 H25        -4.3251    2.0149   50.3552 H       1  ZINC000744839011    0.0700
     26 H26        -4.9695    3.3017   51.4028 H       1  ZINC000744839011    0.0700
     27 H27        -3.6002    2.3071   51.9544 H       1  ZINC000744839011    0.1100
     28 H28        -7.3650   -1.3705   51.5417 H       1  ZINC000744839011    0.1500
     29 H29        -9.2472   -2.3317   52.7948 H       1  ZINC000744839011    0.1500
     30 H30       -10.5786   -2.7038   55.3122 H       1  ZINC000744839011    0.0900
     31 H31        -9.6892   -1.2603   55.8540 H       1  ZINC000744839011    0.1000
     32 H32       -11.8346   -0.2563   56.6343 H       1  ZINC000744839011    0.1100
     33 H33       -12.6903   -1.7367   56.1395 H       1  ZINC000744839011    0.0900
     34 H34        -9.4332    0.1256   57.3562 H       1  ZINC000744839011    0.1700
     35 H35       -10.6847    0.4791   58.5715 H       1  ZINC000744839011    0.1700
     36 H36        -9.7712   -1.3976   61.0073 H       1  ZINC000744839011    0.1400
     37 H37        -8.9331   -0.6110   63.2044 H       1  ZINC000744839011    0.0900
     38 H38        -7.5854   -0.9987   62.1082 H       1  ZINC000744839011    0.0700
     39 H39        -8.0395    0.6984   62.3949 H       1  ZINC000744839011    0.0800
     40 H40       -11.2561    0.5298   60.5286 H       1  ZINC000744839011    0.0800
     41 H41       -11.0766    0.2816   62.2820 H       1  ZINC000744839011    0.0900
     42 H42       -10.1831    1.5909   61.4724 H       1  ZINC000744839011    0.0800
     43 H43        -8.4661    2.5448   52.9130 H       1  ZINC000744839011    0.1600
@<TRIPOS>BOND
     1     1     2    1
     2     1    25    1
     3     1    26    1
     4     1    27    1
     5     2     3    1
     6     3     4    2
     7     3     5    1
     8     5    24   ar
     9     5     6   ar
    10     6     7   ar
    11     6    28    1
    12     7     8   ar
    13     7    29    1
    14     8     9    1
    15     8    22   ar
    16     9    10    1
    17    10    11    1
    18    10    30    1
    19    10    31    1
    20    11    12    1
    21    11    32    1
    22    11    33    1
    23    12    13    1
    24    13    14    2
    25    13    15    1
    26    15    16    1
    27    15    34    1
    28    15    35    1
    29    16    17    2
    30    16    18    2
    31    16    19    1
    32    19    20    1
    33    19    21    1
    34    19    36    1
    35    20    37    1
    36    20    38    1
    37    20    39    1
    38    21    40    1
    39    21    41    1
    40    21    42    1
    41    22    23    1
    42    22    24   ar
    43    24    43    1
@<TRIPOS>SUBSTRUCTURE
     1 ZINC000744839011        1 TEMP              0 ****  ****    0 ROOT


##########                                Name:    ZINC000124554441
##########                DOCK_Rotatable_Bonds:                   9
##########                         Heavy_Atoms:                  26
##########                    Molecular_Weight:             375.898
##########                DOCK_Rotatable_Bonds:                   9
##########                       Formal_Charge:         -0.00999991
##########                     HBond_Acceptors:                   6
##########                        HBond_Donors:                   1
##########                         Heavy_Atoms:                  26
##########                          Grid_Score:          -31.879950
##########                     Grid_vdw_energy:          -33.020638
##########                      Grid_es_energy:            1.140688
##########           Internal_energy_repulsive:           16.062971

@<TRIPOS>MOLECULE
ZINC000124554441
 52 53 1 0 0
SMALL
USER_CHARGES


@<TRIPOS>ATOM
      1 C1         -5.7467    2.8665   52.1854 C.3     1  ZINC000124554441   -0.1500
      2 C2         -6.7661    2.0178   52.9480 C.3     1  ZINC000124554441   -0.1300
      3 C3         -8.1059    2.0443   52.2096 C.3     1  ZINC000124554441   -0.1200
      4 C4         -9.1234    1.1900   52.9685 C.3     1  ZINC000124554441   -0.1200
      5 C5         -8.6281   -0.2562   53.0329 C.3     1  ZINC000124554441   -0.1300
      6 C6         -9.6953   -1.1318   53.6927 C.3     1  ZINC000124554441    0.1200
      7 N7         -9.9506   -0.6494   55.0522 N.am    1  ZINC000124554441   -0.7300
      8 C8        -10.3307   -1.5138   56.0139 C.2     1  ZINC000124554441    0.5200
      9 O9        -10.4627   -2.6909   55.7533 O.2     1  ZINC000124554441   -0.5300
     10 C10       -10.5916   -1.0178   57.4128 C.3     1  ZINC000124554441   -0.1200
     11 H11       -11.0097   -0.0122   57.3702 H       1  ZINC000124554441    0.1000
     12 C12       -11.5815   -1.9536   58.1102 C.3     1  ZINC000124554441   -0.1000
     13 C13       -11.8724   -1.4327   59.5194 C.3     1  ZINC000124554441   -0.1400
     14 C14       -10.5729   -1.4125   60.3304 C.3     1  ZINC000124554441    0.0900
     15 N15        -9.5682   -0.6330   59.5943 N.am    1  ZINC000124554441   -0.6000
     16 C16        -8.9253    0.3925   60.1871 C.2     1  ZINC000124554441    0.5600
     17 O17        -8.0963    1.0296   59.5674 O.2     1  ZINC000124554441   -0.5200
     18 C18        -9.2286    0.7426   61.5919 C.ar    1  ZINC000124554441   -0.0900
     19 C19       -10.0442    1.8394   61.8773 C.ar    1  ZINC000124554441   -0.0900
     20 C20       -10.3273    2.1664   63.1848 C.ar    1  ZINC000124554441   -0.0600
     21 C21        -9.7983    1.4012   64.2265 C.ar    1  ZINC000124554441    0.0100
     22 C22       -10.0925    1.7410   65.5861 C.1     1  ZINC000124554441    0.2400
     23 N23       -10.3261    2.0107   66.6647 N.1     1  ZINC000124554441   -0.3800
     24 C24        -8.9815    0.3028   63.9413 C.ar    1  ZINC000124554441    0.0000
     25 Cl25       -8.3237   -0.6497   65.2351 Cl      1  ZINC000124554441   -0.0400
     26 C26        -8.7039   -0.0271   62.6317 C.ar    1  ZINC000124554441   -0.0600
     27 C27        -9.2773   -0.9922   58.1996 C.3     1  ZINC000124554441    0.1200
     28 H28        -5.6162    2.4626   51.1814 H       1  ZINC000124554441    0.0500
     29 H29        -6.1054    3.8936   52.1200 H       1  ZINC000124554441    0.0500
     30 H30        -4.7922    2.8477   52.7114 H       1  ZINC000124554441    0.0500
     31 H31        -6.4075    0.9906   53.0133 H       1  ZINC000124554441    0.0600
     32 H32        -6.8966    2.4217   53.9520 H       1  ZINC000124554441    0.0600
     33 H33        -8.4669    3.0709   52.1485 H       1  ZINC000124554441    0.0600
     34 H34        -7.9744    1.6450   51.2039 H       1  ZINC000124554441    0.0600
     35 H35        -9.2419    1.5788   53.9799 H       1  ZINC000124554441    0.0700
     36 H36       -10.0826    1.2229   52.4519 H       1  ZINC000124554441    0.0700
     37 H37        -8.4338   -0.6189   52.0235 H       1  ZINC000124554441    0.0700
     38 H38        -7.7096   -0.3000   53.6179 H       1  ZINC000124554441    0.0700
     39 H39       -10.6158   -1.0830   53.1110 H       1  ZINC000124554441    0.0700
     40 H40        -9.3452   -2.1632   53.7330 H       1  ZINC000124554441    0.0700
     41 H41        -9.8462    0.2923   55.2603 H       1  ZINC000124554441    0.4000
     42 H42       -12.5089   -1.9923   57.5387 H       1  ZINC000124554441    0.0800
     43 H43       -11.1527   -2.9537   58.1740 H       1  ZINC000124554441    0.0800
     44 H44       -12.2784   -0.4229   59.4574 H       1  ZINC000124554441    0.0700
     45 H45       -12.5954   -2.0867   60.0071 H       1  ZINC000124554441    0.0900
     46 H46       -10.7549   -0.9504   61.3007 H       1  ZINC000124554441    0.1000
     47 H47       -10.2137   -2.4320   60.4704 H       1  ZINC000124554441    0.0800
     48 H48       -10.4529    2.4319   61.0721 H       1  ZINC000124554441    0.1500
     49 H49       -10.9582    3.0149   63.4047 H       1  ZINC000124554441    0.1500
     50 H50        -8.0732   -0.8754   62.4105 H       1  ZINC000124554441    0.1500
     51 H51        -8.8125   -1.9775   58.1653 H       1  ZINC000124554441    0.0800
     52 H52        -8.6045   -0.2532   57.7646 H       1  ZINC000124554441    0.1000
@<TRIPOS>BOND
     1     1     2    1
     2     1    28    1
     3     1    29    1
     4     1    30    1
     5     2     3    1
     6     2    31    1
     7     2    32    1
     8     3     4    1
     9     3    33    1
    10     3    34    1
    11     4     5    1
    12     4    35    1
    13     4    36    1
    14     5     6    1
    15     5    37    1
    16     5    38    1
    17     6     7    1
    18     6    39    1
    19     6    40    1
    20     7     8   am
    21     7    41    1
    22     8     9    2
    23     8    10    1
    24    10    11    1
    25    10    27    1
    26    10    12    1
    27    12    13    1
    28    12    42    1
    29    12    43    1
    30    13    14    1
    31    13    44    1
    32    13    45    1
    33    14    15    1
    34    14    46    1
    35    14    47    1
    36    15    16   am
    37    15    27    1
    38    16    17    2
    39    16    18    1
    40    18    26   ar
    41    18    19   ar
    42    19    20   ar
    43    19    48    1
    44    20    21   ar
    45    20    49    1
    46    21    22    1
    47    21    24   ar
    48    22    23    3
    49    24    25    1
    50    24    26   ar
    51    26    50    1
    52    27    51    1
    53    27    52    1
@<TRIPOS>SUBSTRUCTURE
     1 ZINC000124554441        1 TEMP              0 ****  ****    0 ROOT


##########                                Name:    ZINC000442864105
##########                DOCK_Rotatable_Bonds:                   7
##########                         Heavy_Atoms:                  30
##########                    Molecular_Weight:              414.39
##########                DOCK_Rotatable_Bonds:                   7
##########                       Formal_Charge:           0.0200001
##########                     HBond_Acceptors:                  10
##########                        HBond_Donors:                   2
##########                         Heavy_Atoms:                  30
##########                          Grid_Score:          -31.827053
##########                     Grid_vdw_energy:          -29.612810
##########                      Grid_es_energy:           -2.214243
##########           Internal_energy_repulsive:           17.227057

@<TRIPOS>MOLECULE
ZINC000442864105
 47 50 1 0 0
SMALL
USER_CHARGES


@<TRIPOS>ATOM
      1 C1         -9.9552   -0.9658   53.8924 C.3     1  ZINC000442864105    0.0800
      2 N2         -8.7821   -0.0941   53.9940 N.pl3   1  ZINC000442864105   -0.4900
      3 C3         -8.0023    0.3025   52.9397 C.2     1  ZINC000442864105    0.0300
      4 C4         -7.0119    1.0955   53.3763 C.2     1  ZINC000442864105   -0.1900
      5 C5         -7.1688    1.2177   54.8285 C.ar    1  ZINC000442864105   -0.1600
      6 C6         -6.4632    1.8945   55.8253 C.ar    1  ZINC000442864105   -0.0200
      7 C7         -6.8717    1.8086   57.1255 C.ar    1  ZINC000442864105   -0.2100
      8 C8         -7.9898    1.0490   57.4661 C.ar    1  ZINC000442864105    0.2400
      9 N9         -8.3950    0.9712   58.8018 N.pl3   1  ZINC000442864105   -0.7400
     10 C10        -8.5745   -0.3362   59.4379 C.3     1  ZINC000442864105    0.1100
     11 C11        -9.0299   -0.1439   60.8615 C.2     1  ZINC000442864105    0.5100
     12 O12        -9.7857   -0.9448   61.3700 O.2     1  ZINC000442864105   -0.5100
     13 N13        -8.5974    0.9180   61.5698 N.am    1  ZINC000442864105   -0.6600
     14 C14        -9.0204    1.0967   62.8921 C.ar    1  ZINC000442864105    0.1600
     15 C15        -8.3869    0.4182   63.9228 C.ar    1  ZINC000442864105   -0.0700
     16 C16        -8.8062    0.5961   65.2276 C.ar    1  ZINC000442864105   -0.1600
     17 C17        -8.1163   -0.1419   66.3457 C.3     1  ZINC000442864105    0.5100
     18 F18        -6.7736   -0.3467   66.0108 F       1  ZINC000442864105   -0.1700
     19 F19        -8.1939    0.6136   67.5207 F       1  ZINC000442864105   -0.1700
     20 F20        -8.7412   -1.3779   66.5439 F       1  ZINC000442864105   -0.1700
     21 C21        -9.8568    1.4498   65.5101 C.ar    1  ZINC000442864105   -0.0600
     22 C22       -10.4943    2.1294   64.4894 C.ar    1  ZINC000442864105   -0.1100
     23 C23       -10.0765    1.9616   63.1778 C.ar    1  ZINC000442864105    0.1500
     24 N24       -10.7219    2.6502   62.1404 N.pl3   1  ZINC000442864105   -0.3300
     25 C25       -11.8520    3.3772   62.2342 C.2     1  ZINC000442864105    0.2800
     26 N26       -12.1251    3.8566   61.0475 N.2     1  ZINC000442864105   -0.5300
     27 C27       -11.1987    3.4606   60.1756 C.2     1  ZINC000442864105    0.2300
     28 N28       -10.3152    2.7245   60.7982 N.2     1  ZINC000442864105   -0.3400
     29 C29        -8.7024    0.3715   56.4917 C.ar    1  ZINC000442864105   -0.2100
     30 C30        -8.3021    0.4536   55.1628 C.ar    1  ZINC000442864105    0.1500
     31 H31       -10.8456   -0.3589   53.7277 H       1  ZINC000442864105    0.0700
     32 H32        -9.8252   -1.6541   53.0574 H       1  ZINC000442864105    0.0800
     33 H33       -10.0678   -1.5327   54.8166 H       1  ZINC000442864105    0.0800
     34 H34        -8.1612    0.0189   51.9098 H       1  ZINC000442864105    0.1700
     35 H35        -6.2443    1.5562   52.7721 H       1  ZINC000442864105    0.1400
     36 H36        -5.5957    2.4845   55.5685 H       1  ZINC000442864105    0.1200
     37 H37        -6.3245    2.3324   57.8953 H       1  ZINC000442864105    0.1200
     38 H38        -8.5571    1.7830   59.3075 H       1  ZINC000442864105    0.4100
     39 H39        -9.3247   -0.9067   58.8904 H       1  ZINC000442864105    0.1000
     40 H40        -7.6285   -0.8775   59.4291 H       1  ZINC000442864105    0.1000
     41 H41        -7.9930    1.5585   61.1633 H       1  ZINC000442864105    0.4300
     42 H42        -7.5660   -0.2492   63.7057 H       1  ZINC000442864105    0.1700
     43 H43       -10.1804    1.5855   66.5315 H       1  ZINC000442864105    0.1500
     44 H44       -11.3146    2.7951   64.7136 H       1  ZINC000442864105    0.1500
     45 H45       -12.4317    3.5359   63.1315 H       1  ZINC000442864105    0.2300
     46 H46       -11.1782    3.7109   59.1252 H       1  ZINC000442864105    0.2300
     47 H47        -9.5678   -0.2152   56.7621 H       1  ZINC000442864105    0.1200
@<TRIPOS>BOND
     1     1     2    1
     2     1    31    1
     3     1    32    1
     4     1    33    1
     5     2    30    1
     6     2     3    1
     7     3     4    2
     8     3    34    1
     9     4     5    1
    10     4    35    1
    11     5    30   ar
    12     5     6   ar
    13     6     7   ar
    14     6    36    1
    15     7     8   ar
    16     7    37    1
    17     8     9    1
    18     8    29   ar
    19     9    10    1
    20     9    38    1
    21    10    11    1
    22    10    39    1
    23    10    40    1
    24    11    12    2
    25    11    13   am
    26    13    14    1
    27    13    41    1
    28    14    23   ar
    29    14    15   ar
    30    15    16   ar
    31    15    42    1
    32    16    17    1
    33    16    21   ar
    34    17    18    1
    35    17    19    1
    36    17    20    1
    37    21    22   ar
    38    21    43    1
    39    22    23   ar
    40    22    44    1
    41    23    24    1
    42    24    28    1
    43    24    25    1
    44    25    26    2
    45    25    45    1
    46    26    27    1
    47    27    28    2
    48    27    46    1
    49    29    30   ar
    50    29    47    1
@<TRIPOS>SUBSTRUCTURE
     1 ZINC000442864105        1 TEMP              0 ****  ****    0 ROOT


##########                                Name:    ZINC000740930783
##########                DOCK_Rotatable_Bonds:                  11
##########                         Heavy_Atoms:                  27
##########                    Molecular_Weight:             413.257
##########                DOCK_Rotatable_Bonds:                  11
##########                       Formal_Charge:          -0.0100004
##########                     HBond_Acceptors:                   9
##########                        HBond_Donors:                   4
##########                         Heavy_Atoms:                  27
##########                          Grid_Score:          -31.768641
##########                     Grid_vdw_energy:          -30.837145
##########                      Grid_es_energy:           -0.931496
##########           Internal_energy_repulsive:           15.863528

@<TRIPOS>MOLECULE
ZINC000740930783
 45 46 1 0 0
SMALL
USER_CHARGES


@<TRIPOS>ATOM
      1 C1         -9.6744   -0.9361   53.7026 C.3     1  ZINC000740930783    0.0200
      2 O2         -9.8127    0.3832   54.2341 O.3     1  ZINC000740930783   -0.3000
      3 C3         -8.9039    0.7707   55.1686 C.ar    1  ZINC000740930783    0.1200
      4 C4         -9.0371    0.3500   56.4775 C.ar    1  ZINC000740930783   -0.1400
      5 C5         -8.1014    0.7493   57.4357 C.ar    1  ZINC000740930783   -0.0800
      6 C6         -8.2393    0.3019   58.8356 C.2     1  ZINC000740930783    0.5600
      7 O7         -8.2327   -0.8853   59.0978 O.2     1  ZINC000740930783   -0.5300
      8 N8         -8.3727    1.2095   59.8231 N.am    1  ZINC000740930783   -0.7200
      9 C9         -8.5113    0.7654   61.2123 C.3     1  ZINC000740930783    0.0900
     10 C10        -9.9596    0.9569   61.6668 C.3     1  ZINC000740930783    0.1400
     11 H11       -10.4512   -0.0136   61.7327 H       1  ZINC000740930783    0.1200
     12 O12       -10.6505    1.7777   60.7228 O.3     1  ZINC000740930783   -0.5500
     13 C13        -9.9780    1.6221   63.0189 C.ar    1  ZINC000740930783   -0.1100
     14 C14       -10.6019    2.8447   63.1793 C.ar    1  ZINC000740930783   -0.1000
     15 C15       -10.6189    3.4550   64.4198 C.ar    1  ZINC000740930783   -0.1100
     16 C16       -10.0112    2.8432   65.5000 C.ar    1  ZINC000740930783   -0.1000
     17 C17        -9.3867    1.6202   65.3408 C.ar    1  ZINC000740930783   -0.1100
     18 C18        -9.3749    1.0062   64.1013 C.ar    1  ZINC000740930783   -0.0300
     19 Cl19       -8.5909   -0.5296   63.9006 Cl      1  ZINC000740930783   -0.0600
     20 C20        -7.0352    1.5724   57.0660 C.ar    1  ZINC000740930783   -0.1000
     21 C21        -6.9077    1.9891   55.7573 C.ar    1  ZINC000740930783   -0.0200
     22 Cl22       -5.5817    3.0116   55.2991 Cl      1  ZINC000740930783   -0.0300
     23 C23        -7.8348    1.5877   54.8044 C.ar    1  ZINC000740930783    0.0900
     24 O24        -7.7053    2.0004   53.5169 O.3     1  ZINC000740930783   -0.2900
     25 C25        -7.0583    1.1051   52.6105 C.3     1  ZINC000740930783    0.0400
     26 C26        -6.5344    1.8788   51.4281 C.2     1  ZINC000740930783    0.5200
     27 N27        -5.2081    2.0682   51.2808 N.am    1  ZINC000740930783   -0.8500
     28 O28        -7.3062    2.3310   50.6092 O.2     1  ZINC000740930783   -0.5100
     29 H29        -8.7007   -1.0343   53.2226 H       1  ZINC000740930783    0.0600
     30 H30        -9.7563   -1.6637   54.5102 H       1  ZINC000740930783    0.0600
     31 H31       -10.4608   -1.1168   52.9697 H       1  ZINC000740930783    0.1100
     32 H32        -9.8629   -0.2860   56.7600 H       1  ZINC000740930783    0.1600
     33 H33        -8.3768    2.1566   59.6140 H       1  ZINC000740930783    0.4100
     34 H34        -8.2442   -0.2889   61.2850 H       1  ZINC000740930783    0.0900
     35 H35        -7.8499    1.3526   61.8491 H       1  ZINC000740930783    0.0800
     36 H36       -10.2081    2.6163   60.5327 H       1  ZINC000740930783    0.3800
     37 H37       -11.0762    3.3235   62.3355 H       1  ZINC000740930783    0.1300
     38 H38       -11.1066    4.4105   64.5447 H       1  ZINC000740930783    0.1300
     39 H39       -10.0240    3.3208   66.4687 H       1  ZINC000740930783    0.1400
     40 H40        -8.9120    1.1423   66.1850 H       1  ZINC000740930783    0.1400
     41 H41        -6.3110    1.8827   57.8046 H       1  ZINC000740930783    0.1500
     42 H42        -6.2294    0.6109   53.1174 H       1  ZINC000740930783    0.0900
     43 H43        -7.7724    0.3564   52.2673 H       1  ZINC000740930783    0.0900
     44 H44        -4.8708    2.5653   50.5192 H       1  ZINC000740930783    0.4000
     45 H45        -4.5909    1.7076   51.9365 H       1  ZINC000740930783    0.4100
@<TRIPOS>BOND
     1     1     2    1
     2     1    29    1
     3     1    30    1
     4     1    31    1
     5     2     3    1
     6     3    23   ar
     7     3     4   ar
     8     4     5   ar
     9     4    32    1
    10     5     6    1
    11     5    20   ar
    12     6     7    2
    13     6     8   am
    14     8     9    1
    15     8    33    1
    16     9    10    1
    17     9    34    1
    18     9    35    1
    19    10    11    1
    20    10    12    1
    21    10    13    1
    22    12    36    1
    23    13    18   ar
    24    13    14   ar
    25    14    15   ar
    26    14    37    1
    27    15    16   ar
    28    15    38    1
    29    16    17   ar
    30    16    39    1
    31    17    18   ar
    32    17    40    1
    33    18    19    1
    34    20    21   ar
    35    20    41    1
    36    21    22    1
    37    21    23   ar
    38    23    24    1
    39    24    25    1
    40    25    26    1
    41    25    42    1
    42    25    43    1
    43    26    27   am
    44    26    28    2
    45    27    44    1
    46    27    45    1
@<TRIPOS>SUBSTRUCTURE
     1 ZINC000740930783        1 TEMP              0 ****  ****    0 ROOT


##########                                Name:    ZINC000058174787
##########                DOCK_Rotatable_Bonds:                   9
##########                         Heavy_Atoms:                  27
##########                    Molecular_Weight:             413.882
##########                DOCK_Rotatable_Bonds:                   9
##########                       Formal_Charge:           0.0200002
##########                     HBond_Acceptors:                  10
##########                        HBond_Donors:                   1
##########                         Heavy_Atoms:                  27
##########                          Grid_Score:          -31.739906
##########                     Grid_vdw_energy:          -27.178333
##########                      Grid_es_energy:           -4.561573
##########           Internal_energy_repulsive:           13.110729

@<TRIPOS>MOLECULE
ZINC000058174787
 47 48 1 0 0
SMALL
USER_CHARGES


@<TRIPOS>ATOM
      1 C1         -9.6152    1.8520   64.6682 C.3     1  ZINC000058174787   -0.0700
      2 C2        -10.4389    1.3615   63.5055 C.2     1  ZINC000058174787    0.2100
      3 N3        -11.6993    1.6297   63.2994 N.2     1  ZINC000058174787   -0.4200
      4 C4        -12.1010    1.0271   62.1704 C.2     1  ZINC000058174787   -0.5600
      5 S5        -13.7205    1.0960   61.4797 S.o2    1  ZINC000058174787    2.7400
      6 O6        -14.4604    0.0452   62.0862 O.2     1  ZINC000058174787   -0.9500
      7 O7        -14.1208    2.4584   61.5306 O.2     1  ZINC000058174787   -0.9600
      8 N8        -13.5861    0.7077   59.8754 N.am    1  ZINC000058174787   -1.1100
      9 C9        -13.0496   -0.5969   59.4800 C.3     1  ZINC000058174787    0.1300
     10 C10       -11.9144   -0.3977   58.4737 C.3     1  ZINC000058174787   -0.1200
     11 C11       -12.4928   -0.2025   57.0960 C.2     1  ZINC000058174787    0.4700
     12 O12       -13.5230    0.4129   56.9548 O.2     1  ZINC000058174787   -0.5000
     13 O13       -11.8636   -0.7124   56.0254 O.3     1  ZINC000058174787   -0.3300
     14 C14       -10.9838    0.1795   55.2913 C.3     1  ZINC000058174787    0.0400
     15 H15       -10.6497    0.9823   55.9484 H       1  ZINC000058174787    0.1200
     16 C16       -11.7388    0.7751   54.1014 C.3     1  ZINC000058174787   -0.1700
     17 C17        -9.7888   -0.5919   54.7930 C.2     1  ZINC000058174787    0.4000
     18 O18        -9.6979   -1.7802   55.0168 O.2     1  ZINC000058174787   -0.4200
     19 C19        -8.7330    0.0967   54.0350 C.ar    1  ZINC000058174787   -0.1600
     20 C20        -8.1037    1.2248   54.5724 C.ar    1  ZINC000058174787   -0.0600
     21 C21        -7.1150    1.8645   53.8567 C.ar    1  ZINC000058174787   -0.1200
     22 C22        -6.7435    1.3930   52.6077 C.ar    1  ZINC000058174787    0.0000
     23 Cl23       -5.4966    2.2049   51.7136 Cl      1  ZINC000058174787   -0.0500
     24 C24        -7.3624    0.2763   52.0692 C.ar    1  ZINC000058174787   -0.1200
     25 C25        -8.3491   -0.3768   52.7757 C.ar    1  ZINC000058174787   -0.0400
     26 C26       -11.0495    0.3601   61.6575 C.2     1  ZINC000058174787    0.0700
     27 N27        -9.9935    0.5762   62.5011 N.pl3   1  ZINC000058174787   -0.4500
     28 C28        -8.6359    0.0475   62.3477 C.3     1  ZINC000058174787    0.0600
     29 H29        -9.1554    2.8062   64.4108 H       1  ZINC000058174787    0.0900
     30 H30       -10.2573    1.9815   65.5395 H       1  ZINC000058174787    0.1000
     31 H31        -8.8370    1.1233   64.8953 H       1  ZINC000058174787    0.0800
     32 H32       -13.8626    1.3441   59.1976 H       1  ZINC000058174787    0.4200
     33 H33       -12.6683   -1.1149   60.3600 H       1  ZINC000058174787    0.0900
     34 H34       -13.8404   -1.1915   59.0225 H       1  ZINC000058174787    0.0900
     35 H35       -11.3326    0.4813   58.7514 H       1  ZINC000058174787    0.1200
     36 H36       -11.2689   -1.2760   58.4756 H       1  ZINC000058174787    0.1200
     37 H37       -12.0728   -0.0278   53.4443 H       1  ZINC000058174787    0.0800
     38 H38       -12.6030    1.3330   54.4618 H       1  ZINC000058174787    0.0800
     39 H39       -11.0783    1.4446   53.5503 H       1  ZINC000058174787    0.0800
     40 H40        -8.3925    1.5936   55.5455 H       1  ZINC000058174787    0.1400
     41 H41        -6.6286    2.7357   54.2701 H       1  ZINC000058174787    0.1400
     42 H42        -7.0679   -0.0857   51.0952 H       1  ZINC000058174787    0.1400
     43 H43        -8.8304   -1.2472   52.3550 H       1  ZINC000058174787    0.1500
     44 H44       -11.0403   -0.2288   60.7521 H       1  ZINC000058174787    0.1900
     45 H45        -8.0364    0.7485   61.7670 H       1  ZINC000058174787    0.0900
     46 H46        -8.1855   -0.0880   63.3310 H       1  ZINC000058174787    0.1000
     47 H47        -8.6757   -0.9114   61.8311 H       1  ZINC000058174787    0.0900
@<TRIPOS>BOND
     1     1     2    1
     2     1    29    1
     3     1    30    1
     4     1    31    1
     5     2    27    1
     6     2     3    2
     7     3     4    1
     8     4     5    1
     9     4    26    2
    10     5     6    2
    11     5     7    2
    12     5     8   am
    13     8     9    1
    14     8    32    1
    15     9    10    1
    16     9    33    1
    17     9    34    1
    18    10    11    1
    19    10    35    1
    20    10    36    1
    21    11    12    2
    22    11    13    1
    23    13    14    1
    24    14    15    1
    25    14    16    1
    26    14    17    1
    27    16    37    1
    28    16    38    1
    29    16    39    1
    30    17    18    2
    31    17    19    1
    32    19    25   ar
    33    19    20   ar
    34    20    21   ar
    35    20    40    1
    36    21    22   ar
    37    21    41    1
    38    22    23    1
    39    22    24   ar
    40    24    25   ar
    41    24    42    1
    42    25    43    1
    43    26    27    1
    44    26    44    1
    45    27    28    1
    46    28    45    1
    47    28    46    1
    48    28    47    1
@<TRIPOS>SUBSTRUCTURE
     1 ZINC000058174787        1 TEMP              0 ****  ****    0 ROOT


##########                                Name:    ZINC000937331732
##########                DOCK_Rotatable_Bonds:                   6
##########                         Heavy_Atoms:                  24
##########                    Molecular_Weight:              333.35
##########                DOCK_Rotatable_Bonds:                   6
##########                       Formal_Charge:          -0.0299999
##########                     HBond_Acceptors:                  10
##########                        HBond_Donors:                   1
##########                         Heavy_Atoms:                  24
##########                          Grid_Score:          -31.715508
##########                     Grid_vdw_energy:          -30.380960
##########                      Grid_es_energy:           -1.334547
##########           Internal_energy_repulsive:           23.321896

@<TRIPOS>MOLECULE
ZINC000937331732
 43 45 1 0 0
SMALL
USER_CHARGES


@<TRIPOS>ATOM
      1 C1         -8.4243   -1.4362   59.6647 C.3     1  ZINC000937331732    0.0600
      2 N2         -9.4708   -1.1889   58.6698 N.am    1  ZINC000937331732   -0.6100
      3 C3        -10.3345   -2.1703   58.3422 C.2     1  ZINC000937331732    0.5000
      4 O4        -10.2444   -3.2586   58.8699 O.2     1  ZINC000937331732   -0.5200
      5 C5        -11.4123   -1.9156   57.3201 C.3     1  ZINC000937331732    0.1500
      6 N6        -12.6316   -2.6291   57.7080 N.am    1  ZINC000937331732   -0.4400
      7 N7        -13.0682   -3.8624   57.2050 N.2     1  ZINC000937331732   -0.2800
      8 C8        -14.1825   -4.1641   57.7894 C.2     1  ZINC000937331732    0.2600
      9 N9        -14.5051   -3.1631   58.6730 N.am    1  ZINC000937331732   -0.5600
     10 C10       -15.6918   -3.1261   59.5312 C.3     1  ZINC000937331732    0.1000
     11 C11       -13.5398   -2.2235   58.6201 C.2     1  ZINC000937331732    0.6500
     12 O12       -13.4989   -1.1941   59.2701 O.2     1  ZINC000937331732   -0.5500
     13 C13        -9.5786    0.1251   58.0310 C.3     1  ZINC000937331732    0.1300
     14 H14       -10.5650    0.5560   58.2026 H       1  ZINC000937331732    0.1200
     15 C15        -8.4665    1.0778   58.5442 C.3     1  ZINC000937331732   -0.1500
     16 C16        -8.3169    2.0528   57.3498 C.3     1  ZINC000937331732    0.1000
     17 N17        -8.4935    1.2120   56.1518 N.am    1  ZINC000937331732   -0.6000
     18 C18        -8.0149    1.4863   54.9221 C.2     1  ZINC000937331732    0.6200
     19 O19        -7.3746    2.5023   54.7315 O.2     1  ZINC000937331732   -0.5400
     20 C20        -8.2677    0.5545   53.8080 C.2     1  ZINC000937331732    0.1400
     21 N21        -9.3461   -0.1831   53.6495 N.2     1  ZINC000937331732   -0.4400
     22 C22        -9.2243   -0.8979   52.5333 C.2     1  ZINC000937331732   -0.0300
     23 C23        -8.0290   -0.6032   51.9659 C.2     1  ZINC000937331732   -0.0200
     24 N24        -7.4251    0.3128   52.7596 N.pl3   1  ZINC000937331732   -0.5200
     25 C25        -9.2823    0.0235   56.5199 C.3     1  ZINC000937331732    0.1000
     26 H26        -7.5292   -1.8078   59.1658 H       1  ZINC000937331732    0.0700
     27 H27        -8.1909   -0.5073   60.1851 H       1  ZINC000937331732    0.0800
     28 H28        -8.7740   -2.1773   60.3834 H       1  ZINC000937331732    0.0800
     29 H29       -11.6180   -0.8464   57.2678 H       1  ZINC000937331732    0.1300
     30 H30       -11.0789   -2.2696   56.3447 H       1  ZINC000937331732    0.1300
     31 H31       -14.7641   -5.0567   57.6114 H       1  ZINC000937331732    0.2300
     32 H32       -16.2899   -4.0217   59.3630 H       1  ZINC000937331732    0.1000
     33 H33       -15.3836   -3.0859   60.5760 H       1  ZINC000937331732    0.0800
     34 H34       -16.2850   -2.2432   59.2931 H       1  ZINC000937331732    0.0800
     35 H35        -8.7882    1.6059   59.4418 H       1  ZINC000937331732    0.0900
     36 H36        -7.5388    0.5344   58.7237 H       1  ZINC000937331732    0.0800
     37 H37        -9.0873    2.8228   57.3899 H       1  ZINC000937331732    0.0800
     38 H38        -7.3257    2.5062   57.3523 H       1  ZINC000937331732    0.1100
     39 H39        -9.9535   -1.5939   52.1457 H       1  ZINC000937331732    0.1800
     40 H40        -7.6339   -1.0184   51.0506 H       1  ZINC000937331732    0.1900
     41 H41        -6.5555    0.7171   52.6142 H       1  ZINC000937331732    0.4300
     42 H42        -8.7076   -0.8802   56.3170 H       1  ZINC000937331732    0.0800
     43 H43       -10.2141    0.0074   55.9546 H       1  ZINC000937331732    0.0800
@<TRIPOS>BOND
     1     1     2    1
     2     1    26    1
     3     1    27    1
     4     1    28    1
     5     2     3   am
     6     2    13    1
     7     3     4    2
     8     3     5    1
     9     5     6    1
    10     5    29    1
    11     5    30    1
    12     6    11   am
    13     6     7    1
    14     7     8    2
    15     8     9    1
    16     8    31    1
    17     9    10    1
    18     9    11   am
    19    10    32    1
    20    10    33    1
    21    10    34    1
    22    11    12    2
    23    13    14    1
    24    13    25    1
    25    13    15    1
    26    15    16    1
    27    15    35    1
    28    15    36    1
    29    16    17    1
    30    16    37    1
    31    16    38    1
    32    17    18   am
    33    17    25    1
    34    18    19    2
    35    18    20    1
    36    20    24    1
    37    20    21    2
    38    21    22    1
    39    22    23    2
    40    22    39    1
    41    23    24    1
    42    23    40    1
    43    24    41    1
    44    25    42    1
    45    25    43    1
@<TRIPOS>SUBSTRUCTURE
     1 ZINC000937331732        1 TEMP              0 ****  ****    0 ROOT


##########                                Name:    ZINC000512699033
##########                DOCK_Rotatable_Bonds:                   9
##########                         Heavy_Atoms:                  30
##########                    Molecular_Weight:              405.54
##########                DOCK_Rotatable_Bonds:                   9
##########                       Formal_Charge:           0.0199988
##########                     HBond_Acceptors:                   5
##########                        HBond_Donors:                   2
##########                         Heavy_Atoms:                  30
##########                          Grid_Score:          -31.699202
##########                     Grid_vdw_energy:          -31.186548
##########                      Grid_es_energy:           -0.512653
##########           Internal_energy_repulsive:           11.354531

@<TRIPOS>MOLECULE
ZINC000512699033
 61 64 1 0 0
SMALL
USER_CHARGES


@<TRIPOS>ATOM
      1 O1        -11.3583   -2.0883   55.5406 O.2     1  ZINC000512699033   -0.5100
      2 C2        -11.6303   -0.9097   55.6296 C.2     1  ZINC000512699033    0.5200
      3 C3        -11.0585    0.0724   54.6399 C.3     1  ZINC000512699033   -0.1500
      4 C4         -9.8873   -0.5746   53.8979 C.3     1  ZINC000512699033    0.1300
      5 N5         -8.9996    0.4700   53.3811 N.am    1  ZINC000512699033   -0.7300
      6 C6         -8.1497    0.1937   52.3723 C.2     1  ZINC000512699033    0.5200
      7 O7         -8.1206   -0.9193   51.8915 O.2     1  ZINC000512699033   -0.5300
      8 C8         -7.2352    1.2678   51.8419 C.3     1  ZINC000512699033   -0.1100
      9 C9         -7.8922    2.6364   52.0317 C.3     1  ZINC000512699033   -0.1100
     10 C10        -6.9638    3.7268   51.4932 C.3     1  ZINC000512699033   -0.1200
     11 C11        -5.6368    3.6882   52.2536 C.3     1  ZINC000512699033   -0.1200
     12 C12        -4.9799    2.3195   52.0638 C.3     1  ZINC000512699033   -0.1200
     13 C13        -5.9082    1.2291   52.6023 C.3     1  ZINC000512699033   -0.1000
     14 N14       -12.4483   -0.4791   56.6104 N.am    1  ZINC000512699033   -0.6600
     15 C15       -12.9793   -1.3911   57.5293 C.ar    1  ZINC000512699033    0.1700
     16 C16       -14.2213   -1.9676   57.2990 C.ar    1  ZINC000512699033   -0.1400
     17 C17       -14.7423   -2.8680   58.2079 C.ar    1  ZINC000512699033   -0.1000
     18 C18       -14.0287   -3.1948   59.3461 C.ar    1  ZINC000512699033   -0.1400
     19 C19       -12.7915   -2.6222   59.5784 C.ar    1  ZINC000512699033   -0.0900
     20 C20       -12.2625   -1.7258   58.6709 C.ar    1  ZINC000512699033   -0.1200
     21 C21       -10.9141   -1.1025   58.9248 C.3     1  ZINC000512699033    0.0900
     22 N22       -11.0934    0.2115   59.5569 N.3     1  ZINC000512699033   -0.4700
     23 C23       -11.4262    0.0688   60.9909 C.3     1  ZINC000512699033    0.0500
     24 C24       -10.8058    1.3422   61.6103 C.3     1  ZINC000512699033   -0.0900
     25 C25        -9.6966    1.6845   60.6358 C.ar    1  ZINC000512699033   -0.1400
     26 C26        -8.6037    2.5175   60.7497 C.ar    1  ZINC000512699033   -0.0800
     27 C27        -7.7215    2.6523   59.6925 C.ar    1  ZINC000512699033   -0.1400
     28 C28        -7.9374    1.9499   58.5212 C.ar    1  ZINC000512699033   -0.0900
     29 C29        -9.0305    1.1170   58.4015 C.ar    1  ZINC000512699033   -0.1400
     30 C30        -9.9254    0.9781   59.4607 C.ar    1  ZINC000512699033    0.0900
     31 H31       -11.8294    0.3573   53.9240 H       1  ZINC000512699033    0.1100
     32 H32       -10.7082    0.9589   55.1688 H       1  ZINC000512699033    0.1000
     33 H33        -9.3331   -1.2162   54.5829 H       1  ZINC000512699033    0.0800
     34 H34       -10.2676   -1.1712   53.0688 H       1  ZINC000512699033    0.0800
     35 H35        -9.0238    1.3605   53.7648 H       1  ZINC000512699033    0.4000
     36 H36        -7.0513    1.0970   50.7811 H       1  ZINC000512699033    0.1000
     37 H37        -8.8376    2.6639   51.4900 H       1  ZINC000512699033    0.0700
     38 H38        -8.0761    2.8071   53.0924 H       1  ZINC000512699033    0.0700
     39 H39        -6.7799    3.5562   50.4325 H       1  ZINC000512699033    0.0600
     40 H40        -7.4318    4.7019   51.6284 H       1  ZINC000512699033    0.0700
     41 H41        -4.9754    4.4650   51.8700 H       1  ZINC000512699033    0.0600
     42 H42        -5.8208    3.8588   53.3144 H       1  ZINC000512699033    0.0600
     43 H43        -4.7958    2.1488   51.0031 H       1  ZINC000512699033    0.0600
     44 H44        -4.0344    2.2920   52.6056 H       1  ZINC000512699033    0.0700
     45 H45        -6.0922    1.3998   53.6630 H       1  ZINC000512699033    0.0700
     46 H46        -5.4402    0.2540   52.4671 H       1  ZINC000512699033    0.0700
     47 H47       -12.6691    0.4629   56.6791 H       1  ZINC000512699033    0.4200
     48 H48       -14.7794   -1.7122   56.4103 H       1  ZINC000512699033    0.1500
     49 H49       -15.7083   -3.3167   58.0293 H       1  ZINC000512699033    0.1300
     50 H50       -14.4387   -3.8984   60.0555 H       1  ZINC000512699033    0.1200
     51 H51       -12.2365   -2.8795   60.4685 H       1  ZINC000512699033    0.1200
     52 H52       -10.3343   -1.7473   59.5851 H       1  ZINC000512699033    0.0600
     53 H53       -10.3858   -0.9816   57.9791 H       1  ZINC000512699033    0.0900
     54 H54       -12.5062    0.0542   61.1375 H       1  ZINC000512699033    0.1000
     55 H55       -10.9662   -0.8273   61.4073 H       1  ZINC000512699033    0.0600
     56 H56       -11.5405    2.1461   61.6568 H       1  ZINC000512699033    0.0900
     57 H57       -10.3993    1.1316   62.5996 H       1  ZINC000512699033    0.0800
     58 H58        -8.4363    3.0655   61.6651 H       1  ZINC000512699033    0.1200
     59 H59        -6.8660    3.3054   59.7818 H       1  ZINC000512699033    0.1300
     60 H60        -7.2476    2.0541   57.6968 H       1  ZINC000512699033    0.1300
     61 H61        -9.1936    0.5713   57.4838 H       1  ZINC000512699033    0.1200
@<TRIPOS>BOND
     1     1     2    2
     2     2     3    1
     3     2    14   am
     4     3     4    1
     5     3    31    1
     6     3    32    1
     7     4     5    1
     8     4    33    1
     9     4    34    1
    10     5     6   am
    11     5    35    1
    12     6     7    2
    13     6     8    1
    14     8    13    1
    15     8     9    1
    16     8    36    1
    17     9    10    1
    18     9    37    1
    19     9    38    1
    20    10    11    1
    21    10    39    1
    22    10    40    1
    23    11    12    1
    24    11    41    1
    25    11    42    1
    26    12    13    1
    27    12    43    1
    28    12    44    1
    29    13    45    1
    30    13    46    1
    31    14    15    1
    32    14    47    1
    33    15    20   ar
    34    15    16   ar
    35    16    17   ar
    36    16    48    1
    37    17    18   ar
    38    17    49    1
    39    18    19   ar
    40    18    50    1
    41    19    20   ar
    42    19    51    1
    43    20    21    1
    44    21    22    1
    45    21    52    1
    46    21    53    1
    47    22    30    1
    48    22    23    1
    49    23    24    1
    50    23    54    1
    51    23    55    1
    52    24    25    1
    53    24    56    1
    54    24    57    1
    55    25    30   ar
    56    25    26   ar
    57    26    27   ar
    58    26    58    1
    59    27    28   ar
    60    27    59    1
    61    28    29   ar
    62    28    60    1
    63    29    30   ar
    64    29    61    1
@<TRIPOS>SUBSTRUCTURE
     1 ZINC000512699033        1 TEMP              0 ****  ****    0 ROOT


##########                                Name:    ZINC001408567397
##########                DOCK_Rotatable_Bonds:                   9
##########                         Heavy_Atoms:                  24
##########                    Molecular_Weight:             336.434
##########                DOCK_Rotatable_Bonds:                   9
##########                       Formal_Charge:          -0.0199996
##########                     HBond_Acceptors:                   7
##########                        HBond_Donors:                   2
##########                         Heavy_Atoms:                  24
##########                          Grid_Score:          -31.696842
##########                     Grid_vdw_energy:          -30.820068
##########                      Grid_es_energy:           -0.876773
##########           Internal_energy_repulsive:           19.895802

@<TRIPOS>MOLECULE
ZINC001408567397
 52 53 1 0 0
SMALL
USER_CHARGES


@<TRIPOS>ATOM
      1 C1        -10.9326   -1.0280   54.8297 C.3     1  ZINC001408567397   -0.0800
      2 C2         -9.7518   -0.5157   54.0459 C.2     1  ZINC001408567397    0.0900
      3 N3         -9.3191   -0.9964   52.9086 N.2     1  ZINC001408567397   -0.2900
      4 N4         -8.2061   -0.2446   52.5108 N.pl3   1  ZINC001408567397   -0.4700
      5 C5         -7.9875    0.7016   53.4479 C.2     1  ZINC001408567397    0.1100
      6 C6         -6.8910    1.7351   53.4282 C.3     1  ZINC001408567397   -0.1000
      7 C7         -8.9329    0.5596   54.4056 C.2     1  ZINC001408567397   -0.2200
      8 C8         -9.0732    1.4050   55.6452 C.3     1  ZINC001408567397   -0.0600
      9 C9         -8.3057    0.7699   56.7759 C.2     1  ZINC001408567397    0.5100
     10 O10        -7.1249    1.0083   56.9166 O.2     1  ZINC001408567397   -0.5300
     11 N11        -8.9315   -0.0632   57.6309 N.am    1  ZINC001408567397   -0.7300
     12 C12        -8.1858   -0.6793   58.7312 C.3     1  ZINC001408567397    0.1100
     13 C13        -8.8306   -2.0174   59.0979 C.3     1  ZINC001408567397    0.1000
     14 N14       -10.1709   -1.7812   59.6403 N.am    1  ZINC001408567397   -0.6200
     15 C15       -10.3754   -0.7561   60.6668 C.3     1  ZINC001408567397    0.0700
     16 C16       -11.2156   -2.5069   59.1950 C.2     1  ZINC001408567397    0.5100
     17 O17       -11.0460   -3.3564   58.3464 O.2     1  ZINC001408567397   -0.5300
     18 C18       -12.5945   -2.2626   59.7518 C.3     1  ZINC001408567397   -0.1300
     19 C19       -13.6431   -2.7249   58.7381 C.3     1  ZINC001408567397   -0.1100
     20 H20       -13.5160   -3.7897   58.5425 H       1  ZINC001408567397    0.0900
     21 C21       -15.0453   -2.4716   59.3001 C.3     1  ZINC001408567397   -0.1200
     22 C22       -16.0848   -2.8657   58.2464 C.3     1  ZINC001408567397   -0.1600
     23 C23       -15.8225   -2.0758   56.9616 C.3     1  ZINC001408567397    0.0600
     24 O24       -14.4914   -2.3327   56.5094 O.3     1  ZINC001408567397   -0.3800
     25 C25       -13.4741   -1.9416   57.4337 C.3     1  ZINC001408567397    0.0600
     26 H26       -11.8355   -0.5096   54.5070 H       1  ZINC001408567397    0.0800
     27 H27       -11.0468   -2.0982   54.6569 H       1  ZINC001408567397    0.0700
     28 H28       -10.7697   -0.8468   55.8921 H       1  ZINC001408567397    0.0800
     29 H29        -7.6845   -0.3802   51.7042 H       1  ZINC001408567397    0.4400
     30 H30        -7.2440    2.6296   52.9151 H       1  ZINC001408567397    0.0800
     31 H31        -6.6124    1.9888   54.4510 H       1  ZINC001408567397    0.0900
     32 H32        -6.0233    1.3342   52.9041 H       1  ZINC001408567397    0.0700
     33 H33        -8.6768    2.4018   55.4519 H       1  ZINC001408567397    0.1000
     34 H34       -10.1260    1.4791   55.9172 H       1  ZINC001408567397    0.1000
     35 H35        -9.8755   -0.2550   57.5176 H       1  ZINC001408567397    0.4000
     36 H36        -7.1538   -0.8458   58.4224 H       1  ZINC001408567397    0.0700
     37 H37        -8.2036   -0.0179   59.5974 H       1  ZINC001408567397    0.0700
     38 H38        -8.9039   -2.6416   58.2074 H       1  ZINC001408567397    0.0800
     39 H39        -8.2197   -2.5222   59.8462 H       1  ZINC001408567397    0.0900
     40 H40       -10.5995    0.1973   60.1887 H       1  ZINC001408567397    0.0600
     41 H41       -11.2078   -1.0453   61.3083 H       1  ZINC001408567397    0.0800
     42 H42        -9.4711   -0.6578   61.2674 H       1  ZINC001408567397    0.0800
     43 H43       -12.7158   -2.8208   60.6801 H       1  ZINC001408567397    0.1000
     44 H44       -12.7237   -1.1983   59.9482 H       1  ZINC001408567397    0.1000
     45 H45       -15.1916   -3.0709   60.1987 H       1  ZINC001408567397    0.0700
     46 H46       -15.1552   -1.4148   59.5433 H       1  ZINC001408567397    0.0600
     47 H47       -16.0074   -3.9332   58.0399 H       1  ZINC001408567397    0.0700
     48 H48       -17.0840   -2.6370   58.6171 H       1  ZINC001408567397    0.0700
     49 H49       -16.5328   -2.3834   56.1943 H       1  ZINC001408567397    0.0900
     50 H50       -15.9397   -1.0103   57.1597 H       1  ZINC001408567397    0.0500
     51 H51       -13.5599   -0.8744   57.6385 H       1  ZINC001408567397    0.0400
     52 H52       -12.4939   -2.1521   57.0059 H       1  ZINC001408567397    0.1100
@<TRIPOS>BOND
     1     1     2    1
     2     1    26    1
     3     1    27    1
     4     1    28    1
     5     2     7    1
     6     2     3    2
     7     3     4    1
     8     4     5    1
     9     4    29    1
    10     5     6    1
    11     5     7    2
    12     6    30    1
    13     6    31    1
    14     6    32    1
    15     7     8    1
    16     8     9    1
    17     8    33    1
    18     8    34    1
    19     9    10    2
    20     9    11   am
    21    11    12    1
    22    11    35    1
    23    12    13    1
    24    12    36    1
    25    12    37    1
    26    13    14    1
    27    13    38    1
    28    13    39    1
    29    14    15    1
    30    14    16   am
    31    15    40    1
    32    15    41    1
    33    15    42    1
    34    16    17    2
    35    16    18    1
    36    18    19    1
    37    18    43    1
    38    18    44    1
    39    19    20    1
    40    19    25    1
    41    19    21    1
    42    21    22    1
    43    21    45    1
    44    21    46    1
    45    22    23    1
    46    22    47    1
    47    22    48    1
    48    23    24    1
    49    23    49    1
    50    23    50    1
    51    24    25    1
    52    25    51    1
    53    25    52    1
@<TRIPOS>SUBSTRUCTURE
     1 ZINC001408567397        1 TEMP              0 ****  ****    0 ROOT


##########                                Name:    ZINC000805177769
##########                DOCK_Rotatable_Bonds:                  10
##########                         Heavy_Atoms:                  30
##########                    Molecular_Weight:             417.548
##########                DOCK_Rotatable_Bonds:                  10
##########                       Formal_Charge:           0.0199995
##########                     HBond_Acceptors:                   7
##########                        HBond_Donors:                   1
##########                         Heavy_Atoms:                  30
##########                          Grid_Score:          -31.681377
##########                     Grid_vdw_energy:          -32.077572
##########                      Grid_es_energy:            0.396195
##########           Internal_energy_repulsive:           64.237572

@<TRIPOS>MOLECULE
ZINC000805177769
 65 66 1 0 0
SMALL
USER_CHARGES


@<TRIPOS>ATOM
      1 C1        -11.9344   -3.5066   57.2081 C.3     1  ZINC000805177769   -0.1200
      2 C2        -11.3444   -2.2307   56.6649 C.ar    1  ZINC000805177769   -0.0800
      3 C3        -10.3510   -2.2824   55.7055 C.ar    1  ZINC000805177769   -0.1200
      4 C4         -9.8096   -1.1118   55.2071 C.ar    1  ZINC000805177769   -0.1100
      5 C5        -10.2623    0.1100   55.6681 C.ar    1  ZINC000805177769   -0.0900
      6 C6         -9.6719    1.3859   55.1252 C.3     1  ZINC000805177769   -0.0900
      7 C7         -8.4433    1.7713   55.9516 C.3     1  ZINC000805177769    0.1500
      8 H8         -8.5415    2.8031   56.2890 H       1  ZINC000805177769    0.1000
      9 C9         -7.1860    1.6339   55.0906 C.3     1  ZINC000805177769   -0.1700
     10 N10        -8.3388    0.8854   57.1136 N.am    1  ZINC000805177769   -0.6900
     11 C11        -8.4201    1.3946   58.3588 C.2     1  ZINC000805177769    0.5100
     12 O12        -8.5783    2.5872   58.5174 O.2     1  ZINC000805177769   -0.5100
     13 C13        -8.3152    0.4905   59.5442 C.2     1  ZINC000805177769    0.5200
     14 O14        -7.9199   -0.6483   59.4055 O.2     1  ZINC000805177769   -0.5200
     15 N15        -8.6597    0.9402   60.7671 N.am    1  ZINC000805177769   -0.5900
     16 C16        -9.1519    2.2905   61.0763 C.3     1  ZINC000805177769    0.1100
     17 C17        -9.4414    2.3370   62.5914 C.3     1  ZINC000805177769   -0.1500
     18 C18        -9.6331    0.8407   62.9546 C.3     1  ZINC000805177769    0.1500
     19 H19       -10.6473    0.5109   62.7294 H       1  ZINC000805177769    0.1200
     20 N20        -9.3042    0.5955   64.3610 N.am    1  ZINC000805177769   -0.5900
     21 C21        -8.3962   -0.4962   64.7214 C.3     1  ZINC000805177769    0.0800
     22 C22        -9.8372    1.3741   65.3233 C.2     1  ZINC000805177769    0.6600
     23 O23        -9.5634    1.1715   66.4898 O.2     1  ZINC000805177769   -0.5600
     24 O24       -10.6733    2.3762   64.9923 O.3     1  ZINC000805177769   -0.3600
     25 C25       -11.2096    3.1739   66.0806 C.3     1  ZINC000805177769    0.1400
     26 C26       -10.0594    3.8333   66.8445 C.3     1  ZINC000805177769   -0.1800
     27 C27       -12.1317    4.2553   65.5140 C.3     1  ZINC000805177769   -0.1400
     28 C28       -12.0025    2.2736   67.0302 C.3     1  ZINC000805177769   -0.1800
     29 C29        -8.6115    0.1573   62.0154 C.3     1  ZINC000805177769    0.0900
     30 C30       -11.2571    0.1618   56.6268 C.ar    1  ZINC000805177769   -0.0800
     31 C31       -11.7509    1.4940   57.1290 C.3     1  ZINC000805177769   -0.1200
     32 C32       -11.8009   -1.0084   57.1222 C.ar    1  ZINC000805177769   -0.1200
     33 H33       -12.7872   -3.8017   56.5967 H       1  ZINC000805177769    0.0700
     34 H34       -11.1811   -4.2940   57.1851 H       1  ZINC000805177769    0.0700
     35 H35       -12.2619   -3.3469   58.2354 H       1  ZINC000805177769    0.0700
     36 H36        -9.9973   -3.2371   55.3453 H       1  ZINC000805177769    0.1200
     37 H37        -9.0328   -1.1523   54.4579 H       1  ZINC000805177769    0.1200
     38 H38        -9.3787    1.2372   54.0860 H       1  ZINC000805177769    0.0800
     39 H39       -10.4134    2.1828   55.1831 H       1  ZINC000805177769    0.0900
     40 H40        -7.0878    0.6021   54.7531 H       1  ZINC000805177769    0.0600
     41 H41        -7.2638    2.2932   54.2261 H       1  ZINC000805177769    0.0700
     42 H42        -6.3107    1.9086   55.6793 H       1  ZINC000805177769    0.0600
     43 H43        -8.2110   -0.0678   56.9868 H       1  ZINC000805177769    0.4100
     44 H44        -8.3922    3.0295   60.8213 H       1  ZINC000805177769    0.0900
     45 H45       -10.0667    2.4886   60.5178 H       1  ZINC000805177769    0.0900
     46 H46        -8.5953    2.7600   63.1329 H       1  ZINC000805177769    0.0900
     47 H47       -10.3513    2.9023   62.7930 H       1  ZINC000805177769    0.0900
     48 H48        -7.3709   -0.1263   64.7354 H       1  ZINC000805177769    0.0600
     49 H49        -8.6588   -0.8763   65.7085 H       1  ZINC000805177769    0.0800
     50 H50        -8.4830   -1.2981   63.9882 H       1  ZINC000805177769    0.0800
     51 H51        -9.4945    4.4746   66.1681 H       1  ZINC000805177769    0.0600
     52 H52       -10.4620    4.4321   67.6615 H       1  ZINC000805177769    0.0700
     53 H53        -9.4025    3.0629   67.2482 H       1  ZINC000805177769    0.0900
     54 H54       -12.9510    3.7855   64.9698 H       1  ZINC000805177769    0.0700
     55 H55       -12.5343    4.8541   66.3309 H       1  ZINC000805177769    0.0800
     56 H56       -11.5666    4.8967   64.8375 H       1  ZINC000805177769    0.0700
     57 H57       -11.3456    1.5033   67.4339 H       1  ZINC000805177769    0.0900
     58 H58       -12.4052    2.8725   67.8471 H       1  ZINC000805177769    0.0700
     59 H59       -12.8219    1.8039   66.4859 H       1  ZINC000805177769    0.0600
     60 H60        -8.8999   -0.8773   61.8297 H       1  ZINC000805177769    0.0900
     61 H61        -7.6112    0.2016   62.4463 H       1  ZINC000805177769    0.0800
     62 H62       -12.5827    1.8300   56.5098 H       1  ZINC000805177769    0.0700
     63 H63       -12.0847    1.3920   58.1617 H       1  ZINC000805177769    0.0700
     64 H64       -10.9427    2.2236   57.0788 H       1  ZINC000805177769    0.0700
     65 H65       -12.5779   -0.9680   57.8712 H       1  ZINC000805177769    0.1200
@<TRIPOS>BOND
     1     1     2    1
     2     1    33    1
     3     1    34    1
     4     1    35    1
     5     2    32   ar
     6     2     3   ar
     7     3     4   ar
     8     3    36    1
     9     4     5   ar
    10     4    37    1
    11     5     6    1
    12     5    30   ar
    13     6     7    1
    14     6    38    1
    15     6    39    1
    16     7     8    1
    17     7     9    1
    18     7    10    1
    19     9    40    1
    20     9    41    1
    21     9    42    1
    22    10    11   am
    23    10    43    1
    24    11    12    2
    25    11    13    1
    26    13    14    2
    27    13    15   am
    28    15    29    1
    29    15    16    1
    30    16    17    1
    31    16    44    1
    32    16    45    1
    33    17    18    1
    34    17    46    1
    35    17    47    1
    36    18    19    1
    37    18    20    1
    38    18    29    1
    39    20    21    1
    40    20    22   am
    41    21    48    1
    42    21    49    1
    43    21    50    1
    44    22    23    2
    45    22    24    1
    46    24    25    1
    47    25    26    1
    48    25    27    1
    49    25    28    1
    50    26    51    1
    51    26    52    1
    52    26    53    1
    53    27    54    1
    54    27    55    1
    55    27    56    1
    56    28    57    1
    57    28    58    1
    58    28    59    1
    59    29    60    1
    60    29    61    1
    61    30    31    1
    62    30    32   ar
    63    31    62    1
    64    31    63    1
    65    31    64    1
    66    32    65    1
@<TRIPOS>SUBSTRUCTURE
     1 ZINC000805177769        1 TEMP              0 ****  ****    0 ROOT


##########                                Name:    ZINC001492779707
##########                DOCK_Rotatable_Bonds:                   8
##########                         Heavy_Atoms:                  27
##########                    Molecular_Weight:             374.483
##########                DOCK_Rotatable_Bonds:                   8
##########                       Formal_Charge:           0.0199998
##########                     HBond_Acceptors:                   7
##########                        HBond_Donors:                   0
##########                         Heavy_Atoms:                  27
##########                          Grid_Score:          -31.649632
##########                     Grid_vdw_energy:          -30.996460
##########                      Grid_es_energy:           -0.653172
##########           Internal_energy_repulsive:           17.382730

@<TRIPOS>MOLECULE
ZINC001492779707
 57 59 1 0 0
SMALL
USER_CHARGES


@<TRIPOS>ATOM
      1 C1         -9.2529   -0.3654   60.8707 C.3     1  ZINC001492779707   -0.0700
      2 C2        -10.0002    0.3272   59.7604 C.2     1  ZINC001492779707    0.1800
      3 N3        -10.4371    1.5548   59.7722 N.2     1  ZINC001492779707   -0.2900
      4 N4        -11.0305    1.8220   58.6637 N.2     1  ZINC001492779707   -0.3100
      5 C5        -11.0036    0.7706   57.8790 C.2     1  ZINC001492779707    0.3400
      6 N6        -11.5419    0.6795   56.6052 N.3     1  ZINC001492779707   -0.4600
      7 C7        -12.9947    0.8957   56.6309 C.3     1  ZINC001492779707    0.0300
      8 C8        -10.8858    1.6206   55.6878 C.3     1  ZINC001492779707    0.1100
      9 C9        -10.1320    0.8515   54.6336 C.ar    1  ZINC001492779707   -0.0400
     10 C10       -10.7684   -0.1467   53.9196 C.ar    1  ZINC001492779707   -0.1300
     11 C11       -10.0795   -0.8543   52.9515 C.ar    1  ZINC001492779707   -0.0800
     12 C12        -8.7534   -0.5652   52.6957 C.ar    1  ZINC001492779707   -0.2100
     13 C13        -8.1124    0.4362   53.4111 C.ar    1  ZINC001492779707    0.1300
     14 O14        -6.8076    0.7229   53.1609 O.3     1  ZINC001492779707   -0.3100
     15 C15        -6.5106    1.3615   51.9175 C.3     1  ZINC001492779707    0.0800
     16 C16        -7.2140    2.7191   51.8608 C.3     1  ZINC001492779707   -0.1500
     17 C17        -4.9990    1.5647   51.7968 C.3     1  ZINC001492779707   -0.1800
     18 C18        -8.8071    1.1483   54.3776 C.ar    1  ZINC001492779707   -0.1400
     19 N19       -10.3404   -0.2140   58.5516 N.pl3   1  ZINC001492779707   -0.4600
     20 C20       -10.0596   -1.5725   58.0805 C.3     1  ZINC001492779707    0.1200
     21 C21       -10.9307   -2.5689   58.8480 C.3     1  ZINC001492779707   -0.1200
     22 C22       -12.3965   -2.3725   58.4559 C.3     1  ZINC001492779707    0.0600
     23 H23       -12.6536   -1.3155   58.5246 H       1  ZINC001492779707    0.0800
     24 C24       -12.6117   -2.8593   57.0199 C.3     1  ZINC001492779707    0.0300
     25 O25       -14.0038   -2.7765   56.6999 O.3     1  ZINC001492779707   -0.3800
     26 C26       -14.8399   -3.5316   57.5817 C.3     1  ZINC001492779707    0.0200
     27 C27       -14.6248   -3.0448   59.0176 C.3     1  ZINC001492779707    0.0300
     28 O28       -13.2328   -3.1265   59.3387 O.3     1  ZINC001492779707   -0.3800
     29 H29        -8.1821   -0.2069   60.7420 H       1  ZINC001492779707    0.0900
     30 H30        -9.5679    0.0433   61.8308 H       1  ZINC001492779707    0.1000
     31 H31        -9.4680   -1.4336   60.8423 H       1  ZINC001492779707    0.0800
     32 H32       -13.2038    1.9241   56.9255 H       1  ZINC001492779707    0.0500
     33 H33       -13.4073    0.7108   55.6391 H       1  ZINC001492779707    0.0900
     34 H34       -13.4511    0.2126   57.3474 H       1  ZINC001492779707    0.0700
     35 H35       -11.6388    2.2480   55.2111 H       1  ZINC001492779707    0.0700
     36 H36       -10.1910    2.2478   56.2464 H       1  ZINC001492779707    0.0900
     37 H37       -11.8052   -0.3745   54.1183 H       1  ZINC001492779707    0.1200
     38 H38       -10.5788   -1.6339   52.3953 H       1  ZINC001492779707    0.1300
     39 H39        -8.2156   -1.1183   51.9399 H       1  ZINC001492779707    0.1300
     40 H40        -6.8601    0.7368   51.0956 H       1  ZINC001492779707    0.0700
     41 H41        -6.8645    3.3440   52.6828 H       1  ZINC001492779707    0.0700
     42 H42        -6.9874    3.2063   50.9124 H       1  ZINC001492779707    0.0800
     43 H43        -8.2908    2.5743   51.9469 H       1  ZINC001492779707    0.0700
     44 H44        -4.4980    0.5976   51.8371 H       1  ZINC001492779707    0.0600
     45 H45        -4.7726    2.0519   50.8482 H       1  ZINC001492779707    0.0700
     46 H46        -4.6496    2.1895   52.6187 H       1  ZINC001492779707    0.0700
     47 H47        -8.3104    1.9282   54.9357 H       1  ZINC001492779707    0.1300
     48 H48       -10.2814   -1.6408   57.0155 H       1  ZINC001492779707    0.1000
     49 H49        -9.0079   -1.8049   58.2482 H       1  ZINC001492779707    0.1000
     50 H50       -10.6221   -3.5852   58.6033 H       1  ZINC001492779707    0.0900
     51 H51       -10.8157   -2.4023   59.9190 H       1  ZINC001492779707    0.0800
     52 H52       -12.0422   -2.2325   56.3336 H       1  ZINC001492779707    0.1100
     53 H53       -12.2786   -3.8934   56.9320 H       1  ZINC001492779707    0.0600
     54 H54       -15.8842   -3.3917   57.3022 H       1  ZINC001492779707    0.1100
     55 H55       -14.5818   -4.5883   57.5127 H       1  ZINC001492779707    0.0600
     56 H56       -14.9578   -2.0107   59.1056 H       1  ZINC001492779707    0.0600
     57 H57       -15.1943   -3.6716   59.7040 H       1  ZINC001492779707    0.1100
@<TRIPOS>BOND
     1     1     2    1
     2     1    29    1
     3     1    30    1
     4     1    31    1
     5     2    19    1
     6     2     3    2
     7     3     4    1
     8     4     5    2
     9     5     6    1
    10     5    19    1
    11     6     7    1
    12     6     8    1
    13     7    32    1
    14     7    33    1
    15     7    34    1
    16     8     9    1
    17     8    35    1
    18     8    36    1
    19     9    18   ar
    20     9    10   ar
    21    10    11   ar
    22    10    37    1
    23    11    12   ar
    24    11    38    1
    25    12    13   ar
    26    12    39    1
    27    13    14    1
    28    13    18   ar
    29    14    15    1
    30    15    16    1
    31    15    17    1
    32    15    40    1
    33    16    41    1
    34    16    42    1
    35    16    43    1
    36    17    44    1
    37    17    45    1
    38    17    46    1
    39    18    47    1
    40    19    20    1
    41    20    21    1
    42    20    48    1
    43    20    49    1
    44    21    22    1
    45    21    50    1
    46    21    51    1
    47    22    23    1
    48    22    28    1
    49    22    24    1
    50    24    25    1
    51    24    52    1
    52    24    53    1
    53    25    26    1
    54    26    27    1
    55    26    54    1
    56    26    55    1
    57    27    28    1
    58    27    56    1
    59    27    57    1
@<TRIPOS>SUBSTRUCTURE
     1 ZINC001492779707        1 TEMP              0 ****  ****    0 ROOT


##########                                Name:    ZINC000774689801
##########                DOCK_Rotatable_Bonds:                   4
##########                         Heavy_Atoms:                  24
##########                    Molecular_Weight:             347.395
##########                DOCK_Rotatable_Bonds:                   4
##########                       Formal_Charge:         -0.00999961
##########                     HBond_Acceptors:                   8
##########                        HBond_Donors:                   1
##########                         Heavy_Atoms:                  24
##########                          Grid_Score:          -31.645191
##########                     Grid_vdw_energy:          -29.769085
##########                      Grid_es_energy:           -1.876106
##########           Internal_energy_repulsive:            7.846963

@<TRIPOS>MOLECULE
ZINC000774689801
 41 44 1 0 0
SMALL
USER_CHARGES


@<TRIPOS>ATOM
      1 C1         -8.8707   -0.7079   58.9055 C.3     1  ZINC000774689801   -0.1200
      2 C2         -9.3926   -0.9593   57.5142 C.2     1  ZINC000774689801    0.0600
      3 C3        -10.3443   -1.8717   57.2600 C.2     1  ZINC000774689801   -0.2800
      4 C4        -10.9816   -2.7172   58.2717 C.2     1  ZINC000774689801    0.5500
      5 O5        -10.7551   -3.9119   58.2962 O.2     1  ZINC000774689801   -0.4900
      6 O6        -11.8200   -2.1710   59.1765 O.3     1  ZINC000774689801   -0.3400
      7 C7        -12.7264   -1.1423   58.6984 C.3     1  ZINC000774689801    0.0900
      8 C8        -14.1519   -1.6967   58.6595 C.3     1  ZINC000774689801   -0.1300
      9 H9        -14.8686   -0.8926   58.4931 H       1  ZINC000774689801    0.1200
     10 C10       -14.2834   -2.7751   57.5591 C.3     1  ZINC000774689801   -0.1300
     11 C11       -15.2496   -3.7832   58.2199 C.3     1  ZINC000774689801    0.1000
     12 N12       -15.0771   -3.6008   59.6659 N.am    1  ZINC000774689801   -0.7400
     13 C13       -14.4694   -2.4316   59.9432 C.2     1  ZINC000774689801    0.5200
     14 O14       -14.2116   -2.0300   61.0581 O.2     1  ZINC000774689801   -0.5100
     15 S15       -10.7181   -1.9088   55.5453 S.3     1  ZINC000774689801    0.3000
     16 C16        -9.5370   -0.6480   55.2111 C.2     1  ZINC000774689801    0.1000
     17 C17        -8.9240   -0.2565   56.4059 C.2     1  ZINC000774689801   -0.2500
     18 C18        -7.8987    0.8004   56.3145 C.2     1  ZINC000774689801    0.5700
     19 O19        -7.3200    1.1934   57.3117 O.2     1  ZINC000774689801   -0.5000
     20 N20        -7.6143    1.3239   55.0989 N.am    1  ZINC000774689801   -0.5500
     21 C21        -6.6466    2.3792   54.7525 C.3     1  ZINC000774689801    0.0900
     22 C22        -6.4259    2.2564   53.2307 C.3     1  ZINC000774689801   -0.1300
     23 C23        -7.7548    1.6203   52.7692 C.3     1  ZINC000774689801   -0.0800
     24 C24        -8.2620    0.8764   53.9935 C.2     1  ZINC000774689801    0.4200
     25 N25        -9.1759   -0.0550   54.0601 N.2     1  ZINC000774689801   -0.5100
     26 H26        -9.4718    0.0646   59.3850 H       1  ZINC000774689801    0.0800
     27 H27        -8.9297   -1.6276   59.4875 H       1  ZINC000774689801    0.1000
     28 H28        -7.8330   -0.3788   58.8503 H       1  ZINC000774689801    0.0800
     29 H29       -12.6884   -0.2841   59.3693 H       1  ZINC000774689801    0.0900
     30 H30       -12.4293   -0.8334   57.6961 H       1  ZINC000774689801    0.0800
     31 H31       -14.7179   -2.3556   56.6518 H       1  ZINC000774689801    0.1000
     32 H32       -13.3193   -3.2386   57.3500 H       1  ZINC000774689801    0.0900
     33 H33       -16.2779   -3.5642   57.9321 H       1  ZINC000774689801    0.0800
     34 H34       -14.9858   -4.8014   57.9341 H       1  ZINC000774689801    0.0800
     35 H35       -15.3654   -4.2398   60.3364 H       1  ZINC000774689801    0.4100
     36 H36        -7.0554    3.3599   54.9960 H       1  ZINC000774689801    0.1000
     37 H37        -5.7082    2.2189   55.2834 H       1  ZINC000774689801    0.1000
     38 H38        -6.2848    3.2373   52.7768 H       1  ZINC000774689801    0.1100
     39 H39        -5.5829    1.6014   53.0106 H       1  ZINC000774689801    0.0900
     40 H40        -8.4640    2.3929   52.4720 H       1  ZINC000774689801    0.1200
     41 H41        -7.5798    0.9262   51.9472 H       1  ZINC000774689801    0.1200
@<TRIPOS>BOND
     1     1     2    1
     2     1    26    1
     3     1    27    1
     4     1    28    1
     5     2    17    1
     6     2     3    2
     7     3     4    1
     8     3    15    1
     9     4     5    2
    10     4     6    1
    11     6     7    1
    12     7     8    1
    13     7    29    1
    14     7    30    1
    15     8     9    1
    16     8    13    1
    17     8    10    1
    18    10    11    1
    19    10    31    1
    20    10    32    1
    21    11    12    1
    22    11    33    1
    23    11    34    1
    24    12    13   am
    25    12    35    1
    26    13    14    2
    27    15    16    1
    28    16    25    1
    29    16    17    2
    30    17    18    1
    31    18    19    2
    32    18    20   am
    33    20    24    1
    34    20    21    1
    35    21    22    1
    36    21    36    1
    37    21    37    1
    38    22    23    1
    39    22    38    1
    40    22    39    1
    41    23    24    1
    42    23    40    1
    43    23    41    1
    44    24    25    2
@<TRIPOS>SUBSTRUCTURE
     1 ZINC000774689801        1 TEMP              0 ****  ****    0 ROOT


##########                                Name:    ZINC000045927156
##########                DOCK_Rotatable_Bonds:                   7
##########                         Heavy_Atoms:                  30
##########                    Molecular_Weight:             418.522
##########                DOCK_Rotatable_Bonds:                   7
##########                       Formal_Charge:           0.0200001
##########                     HBond_Acceptors:                   8
##########                        HBond_Donors:                   1
##########                         Heavy_Atoms:                  30
##########                          Grid_Score:          -31.636293
##########                     Grid_vdw_energy:          -30.751574
##########                      Grid_es_energy:           -0.884720
##########           Internal_energy_repulsive:           16.463215

@<TRIPOS>MOLECULE
ZINC000045927156
 52 56 1 0 0
SMALL
USER_CHARGES


@<TRIPOS>ATOM
      1 O1         -6.8363    3.0683   57.1321 O.2     1  ZINC000045927156   -0.5800
      2 C2         -6.9820    2.2905   56.2089 C.2     1  ZINC000045927156    0.7300
      3 N3         -7.6377    1.1291   56.4033 N.am    1  ZINC000045927156   -0.7400
      4 C4         -8.1697    0.8012   57.7284 C.3     1  ZINC000045927156    0.1700
      5 C5         -9.1049   -0.3753   57.6172 C.ar    1  ZINC000045927156   -0.0700
      6 C6        -10.0044   -0.4465   56.5703 C.ar    1  ZINC000045927156   -0.1000
      7 C7        -10.8623   -1.5258   56.4682 C.ar    1  ZINC000045927156   -0.1100
      8 C8        -10.8202   -2.5338   57.4129 C.ar    1  ZINC000045927156   -0.1100
      9 C9         -9.9197   -2.4631   58.4596 C.ar    1  ZINC000045927156   -0.1000
     10 C10        -9.0591   -1.3862   58.5593 C.ar    1  ZINC000045927156   -0.1000
     11 C11        -8.0775   -1.3091   59.7002 C.3     1  ZINC000045927156    0.1700
     12 N12        -8.6157   -0.4396   60.7493 N.pl3   1  ZINC000045927156   -0.3800
     13 C13        -8.2360   -0.4024   62.0384 C.2     1  ZINC000045927156    0.2500
     14 N14        -8.9546    0.5058   62.6472 N.2     1  ZINC000045927156   -0.5400
     15 C15        -9.7998    1.0671   61.7836 C.2     1  ZINC000045927156    0.2000
     16 N16        -9.6264    0.5252   60.6068 N.2     1  ZINC000045927156   -0.3100
     17 N17        -6.4927    2.5922   54.9900 N.am    1  ZINC000045927156   -0.6200
     18 C18        -5.7596    3.8221   54.6387 C.3     1  ZINC000045927156    0.1000
     19 C19        -4.9101    3.4379   53.4016 C.3     1  ZINC000045927156   -0.1300
     20 C20        -5.8738    2.4855   52.6456 C.3     1  ZINC000045927156   -0.1200
     21 C21        -6.5957    1.7464   53.7918 C.3     1  ZINC000045927156    0.2300
     22 H22        -6.1185    0.7828   53.9700 H       1  ZINC000045927156    0.1000
     23 C23        -8.0460    1.5420   53.4366 C.2     1  ZINC000045927156    0.0900
     24 N24        -8.5437    0.4259   53.0583 N.2     1  ZINC000045927156   -0.4500
     25 C25        -9.8593    0.3884   52.7729 C.ar    1  ZINC000045927156    0.0800
     26 C26       -10.6562   -0.6906   52.3409 C.ar    1  ZINC000045927156   -0.0700
     27 C27       -11.9861   -0.5147   52.1044 C.ar    1  ZINC000045927156   -0.1100
     28 C28       -12.5811    0.7259   52.2837 C.ar    1  ZINC000045927156   -0.1000
     29 C29       -11.8272    1.7982   52.7051 C.ar    1  ZINC000045927156   -0.0700
     30 C30       -10.4657    1.6370   52.9518 C.ar    1  ZINC000045927156   -0.1800
     31 S31        -9.2310    2.7684   53.4957 S.3     1  ZINC000045927156    0.1200
     32 H32        -7.7575    0.5105   55.6659 H       1  ZINC000045927156    0.3900
     33 H33        -7.3472    0.5496   58.3980 H       1  ZINC000045927156    0.1000
     34 H34        -8.7115    1.6598   58.1251 H       1  ZINC000045927156    0.0700
     35 H35       -10.0373    0.3412   55.8321 H       1  ZINC000045927156    0.1300
     36 H36       -11.5657   -1.5811   55.6506 H       1  ZINC000045927156    0.1300
     37 H37       -11.4908   -3.3766   57.3336 H       1  ZINC000045927156    0.1300
     38 H38        -9.8870   -3.2506   59.1980 H       1  ZINC000045927156    0.1300
     39 H39        -7.9120   -2.3074   60.1052 H       1  ZINC000045927156    0.1100
     40 H40        -7.1329   -0.9018   59.3399 H       1  ZINC000045927156    0.1000
     41 H41        -7.4718   -1.0157   62.4924 H       1  ZINC000045927156    0.2200
     42 H42       -10.5099    1.8466   62.0170 H       1  ZINC000045927156    0.2200
     43 H43        -6.4574    4.6206   54.3866 H       1  ZINC000045927156    0.0700
     44 H44        -5.1140    4.1272   55.4622 H       1  ZINC000045927156    0.0800
     45 H45        -4.6768    4.3161   52.7998 H       1  ZINC000045927156    0.0900
     46 H46        -3.9999    2.9171   53.6992 H       1  ZINC000045927156    0.0800
     47 H47        -6.5817    3.0531   52.0416 H       1  ZINC000045927156    0.0900
     48 H48        -5.3152    1.7824   52.0279 H       1  ZINC000045927156    0.0900
     49 H49       -10.2096   -1.6633   52.1961 H       1  ZINC000045927156    0.1300
     50 H50       -12.5844   -1.3505   51.7730 H       1  ZINC000045927156    0.1400
     51 H51       -13.6367    0.8506   52.0922 H       1  ZINC000045927156    0.1400
     52 H52       -12.2908    2.7637   52.8437 H       1  ZINC000045927156    0.1300
@<TRIPOS>BOND
     1     1     2    2
     2     2     3   am
     3     2    17   am
     4     3     4    1
     5     3    32    1
     6     4     5    1
     7     4    33    1
     8     4    34    1
     9     5    10   ar
    10     5     6   ar
    11     6     7   ar
    12     6    35    1
    13     7     8   ar
    14     7    36    1
    15     8     9   ar
    16     8    37    1
    17     9    10   ar
    18     9    38    1
    19    10    11    1
    20    11    12    1
    21    11    39    1
    22    11    40    1
    23    12    16    1
    24    12    13    1
    25    13    14    2
    26    13    41    1
    27    14    15    1
    28    15    16    2
    29    15    42    1
    30    17    21    1
    31    17    18    1
    32    18    19    1
    33    18    43    1
    34    18    44    1
    35    19    20    1
    36    19    45    1
    37    19    46    1
    38    20    21    1
    39    20    47    1
    40    20    48    1
    41    21    22    1
    42    21    23    1
    43    23    31    1
    44    23    24    2
    45    24    25    1
    46    25    30   ar
    47    25    26   ar
    48    26    27   ar
    49    26    49    1
    50    27    28   ar
    51    27    50    1
    52    28    29   ar
    53    28    51    1
    54    29    30   ar
    55    29    52    1
    56    30    31    1
@<TRIPOS>SUBSTRUCTURE
     1 ZINC000045927156        1 TEMP              0 ****  ****    0 ROOT


##########                                Name:    ZINC000563265674
##########                DOCK_Rotatable_Bonds:                   7
##########                         Heavy_Atoms:                  25
##########                    Molecular_Weight:             386.859
##########                DOCK_Rotatable_Bonds:                   7
##########                       Formal_Charge:          0.00999963
##########                     HBond_Acceptors:                  10
##########                        HBond_Donors:                   2
##########                         Heavy_Atoms:                  25
##########                          Grid_Score:          -31.632132
##########                     Grid_vdw_energy:          -32.336918
##########                      Grid_es_energy:            0.704787
##########           Internal_energy_repulsive:           14.400598

@<TRIPOS>MOLECULE
ZINC000563265674
 44 45 1 0 0
SMALL
USER_CHARGES


@<TRIPOS>ATOM
      1 C1         -8.2622   -0.7499   66.6334 C.3     1  ZINC000563265674   -0.0600
      2 C2         -8.3919   -0.2925   65.2034 C.2     1  ZINC000563265674    0.1700
      3 N3         -7.5254   -0.4820   64.2538 N.2     1  ZINC000563265674   -0.3800
      4 O4         -7.9244    0.0065   63.2176 O.3     1  ZINC000563265674    0.0900
      5 C5         -9.1198    0.5711   63.4139 C.2     1  ZINC000563265674    0.1900
      6 C6         -9.9556    1.2843   62.3825 C.3     1  ZINC000563265674    0.2100
      7 C7        -10.8696    2.2956   63.0775 C.3     1  ZINC000563265674   -0.1400
      8 C8         -9.0389    2.0162   61.4004 C.3     1  ZINC000563265674   -0.1800
      9 N9        -10.7733    0.3059   61.6531 N.3     1  ZINC000563265674   -0.6600
     10 C10        -9.9428   -0.7845   61.1246 C.3     1  ZINC000563265674    0.0400
     11 C11       -10.2249   -0.9639   59.6552 C.2     1  ZINC000563265674    0.5200
     12 O12       -11.3344   -0.7405   59.2190 O.2     1  ZINC000563265674   -0.4900
     13 N13        -9.2445   -1.3727   58.8257 N.am    1  ZINC000563265674   -0.6700
     14 C14        -9.5066   -1.5394   57.4607 C.ar    1  ZINC000563265674    0.1400
     15 C15        -9.2208   -0.5160   56.5676 C.ar    1  ZINC000563265674   -0.0300
     16 C16        -9.4802   -0.6835   55.2210 C.ar    1  ZINC000563265674   -0.6400
     17 S17        -9.1172    0.6152   54.0868 S.o2    1  ZINC000563265674    2.5000
     18 C18        -8.5555   -0.2374   52.5873 C.3     1  ZINC000563265674   -0.6500
     19 O19       -10.3709    1.2451   53.8623 O.2     1  ZINC000563265674   -0.9300
     20 O20        -8.0417    1.3190   54.6926 O.2     1  ZINC000563265674   -0.9300
     21 C21       -10.0239   -1.8689   54.7620 C.ar    1  ZINC000563265674   -0.0300
     22 C22       -10.3104   -2.8910   55.6486 C.ar    1  ZINC000563265674   -0.1100
     23 C23       -10.0483   -2.7321   56.9961 C.ar    1  ZINC000563265674   -0.0200
     24 Cl24      -10.4075   -4.0154   58.1086 Cl      1  ZINC000563265674   -0.0500
     25 N25        -9.4284    0.3817   64.6742 N.2     1  ZINC000563265674   -0.4700
     26 H26        -8.6851   -1.7494   66.7350 H       1  ZINC000563265674    0.0900
     27 H27        -7.2092   -0.7707   66.9141 H       1  ZINC000563265674    0.0900
     28 H28        -8.7985   -0.0604   67.2855 H       1  ZINC000563265674    0.0900
     29 H29       -10.2629    3.0216   63.6188 H       1  ZINC000563265674    0.0800
     30 H30       -11.4742    2.8115   62.3316 H       1  ZINC000563265674    0.0800
     31 H31       -11.5227    1.7743   63.7772 H       1  ZINC000563265674    0.0700
     32 H32        -8.3878    1.2958   60.9053 H       1  ZINC000563265674    0.0700
     33 H33        -9.6435    2.5321   60.6544 H       1  ZINC000563265674    0.0800
     34 H34        -8.4321    2.7421   61.9416 H       1  ZINC000563265674    0.0800
     35 H35       -11.5134   -0.0538   62.2371 H       1  ZINC000563265674    0.3600
     36 H36        -8.8899   -0.5401   61.2652 H       1  ZINC000563265674    0.1200
     37 H37       -10.1753   -1.7081   61.6547 H       1  ZINC000563265674    0.0800
     38 H38        -8.3572   -1.5514   59.1745 H       1  ZINC000563265674    0.4200
     39 H39        -8.7965    0.4106   56.9251 H       1  ZINC000563265674    0.1700
     40 H40        -9.3493   -0.8880   52.2204 H       1  ZINC000563265674    0.1300
     41 H41        -8.3063    0.4985   51.8228 H       1  ZINC000563265674    0.1400
     42 H42        -7.6734   -0.8348   52.8178 H       1  ZINC000563265674    0.1400
     43 H43       -10.2255   -1.9970   53.7088 H       1  ZINC000563265674    0.1500
     44 H44       -10.7354   -3.8156   55.2870 H       1  ZINC000563265674    0.1500
@<TRIPOS>BOND
     1     1     2    1
     2     1    26    1
     3     1    27    1
     4     1    28    1
     5     2    25    1
     6     2     3    2
     7     3     4    1
     8     4     5    1
     9     5     6    1
    10     5    25    2
    11     6     7    1
    12     6     8    1
    13     6     9    1
    14     7    29    1
    15     7    30    1
    16     7    31    1
    17     8    32    1
    18     8    33    1
    19     8    34    1
    20     9    10    1
    21     9    35    1
    22    10    11    1
    23    10    36    1
    24    10    37    1
    25    11    12    2
    26    11    13   am
    27    13    14    1
    28    13    38    1
    29    14    23   ar
    30    14    15   ar
    31    15    16   ar
    32    15    39    1
    33    16    17    1
    34    16    21   ar
    35    17    18    1
    36    17    19    2
    37    17    20    2
    38    18    40    1
    39    18    41    1
    40    18    42    1
    41    21    22   ar
    42    21    43    1
    43    22    23   ar
    44    22    44    1
    45    23    24    1
@<TRIPOS>SUBSTRUCTURE
     1 ZINC000563265674        1 TEMP              0 ****  ****    0 ROOT


##########                                Name:    ZINC000444542200
##########                DOCK_Rotatable_Bonds:                   8
##########                         Heavy_Atoms:                  28
##########                    Molecular_Weight:             404.337
##########                DOCK_Rotatable_Bonds:                   8
##########                       Formal_Charge:           0.0200001
##########                     HBond_Acceptors:                  10
##########                        HBond_Donors:                   1
##########                         Heavy_Atoms:                  28
##########                          Grid_Score:          -31.611237
##########                     Grid_vdw_energy:          -30.540911
##########                      Grid_es_energy:           -1.070327
##########           Internal_energy_repulsive:           18.783924

@<TRIPOS>MOLECULE
ZINC000444542200
 45 46 1 0 0
SMALL
USER_CHARGES


@<TRIPOS>ATOM
      1 C1        -14.8742   -1.7784   60.5476 C.3     1  ZINC000444542200    0.0300
      2 O2        -13.5636   -1.2096   60.5770 O.3     1  ZINC000444542200   -0.3100
      3 C3        -12.6606   -1.6940   59.6844 C.ar    1  ZINC000444542200    0.1800
      4 C4        -11.3577   -1.2201   59.6901 C.ar    1  ZINC000444542200   -0.1700
      5 C5        -10.4354   -1.7153   58.7786 C.ar    1  ZINC000444542200    0.2300
      6 N6         -9.1200   -1.2378   58.7842 N.am    1  ZINC000444542200   -0.5800
      7 C7         -8.1513   -1.7708   59.7452 C.3     1  ZINC000444542200    0.0700
      8 C8         -8.7444   -0.2875   57.9054 C.2     1  ZINC000444542200    0.7100
      9 O9         -7.6016    0.1277   57.9103 O.2     1  ZINC000444542200   -0.5500
     10 N10        -9.6357    0.2029   57.0212 N.am    1  ZINC000444542200   -0.7300
     11 C11        -9.2269    1.2346   56.0648 C.3     1  ZINC000444542200    0.1700
     12 H12        -8.3602    1.7684   56.4545 H       1  ZINC000444542200    0.1500
     13 C13        -8.8700    0.5885   54.7509 C.ar    1  ZINC000444542200   -0.1300
     14 C14        -9.6901   -0.3863   54.2149 C.ar    1  ZINC000444542200   -0.0800
     15 C15        -9.3640   -0.9801   53.0097 C.ar    1  ZINC000444542200   -0.0900
     16 C16        -8.2172   -0.6001   52.3382 C.ar    1  ZINC000444542200   -0.1100
     17 C17        -7.3938    0.3759   52.8724 C.ar    1  ZINC000444542200    0.0800
     18 F18        -6.2727    0.7479   52.2167 F       1  ZINC000444542200   -0.1200
     19 C19        -7.7238    0.9754   54.0782 C.ar    1  ZINC000444542200    0.1000
     20 F20        -6.9217    1.9282   54.6016 F       1  ZINC000444542200   -0.1100
     21 C21       -10.3791    2.2187   55.8528 C.3     1  ZINC000444542200    0.4400
     22 F22       -10.3200    3.2226   56.8254 F       1  ZINC000444542200   -0.1600
     23 F23       -10.2732    2.7939   54.5819 F       1  ZINC000444542200   -0.1700
     24 F24       -11.5977    1.5395   55.9573 F       1  ZINC000444542200   -0.1800
     25 C25       -10.8183   -2.6848   57.8619 C.ar    1  ZINC000444542200   -0.1900
     26 C26       -12.1215   -3.1578   57.8573 C.ar    1  ZINC000444542200    0.1800
     27 O27       -12.4965   -4.1069   56.9599 O.3     1  ZINC000444542200   -0.3100
     28 C28       -13.8534   -4.5516   57.0147 C.3     1  ZINC000444542200    0.0300
     29 C29       -13.0412   -2.6665   58.7717 C.ar    1  ZINC000444542200   -0.2900
     30 H30       -15.3182   -1.6174   59.5652 H       1  ZINC000444542200    0.0600
     31 H31       -14.8106   -2.8482   60.7467 H       1  ZINC000444542200    0.0600
     32 H32       -15.4936   -1.3035   61.3085 H       1  ZINC000444542200    0.1000
     33 H33       -11.0606   -0.4656   60.4034 H       1  ZINC000444542200    0.1300
     34 H34        -7.6437   -2.6317   59.3099 H       1  ZINC000444542200    0.0700
     35 H35        -7.4185   -1.0011   59.9873 H       1  ZINC000444542200    0.0700
     36 H36        -8.6709   -2.0763   60.6534 H       1  ZINC000444542200    0.0900
     37 H37       -10.5477   -0.1273   57.0181 H       1  ZINC000444542200    0.4100
     38 H38       -10.5864   -0.6849   54.7382 H       1  ZINC000444542200    0.1400
     39 H39       -10.0059   -1.7419   52.5925 H       1  ZINC000444542200    0.1500
     40 H40        -7.9634   -1.0649   51.3970 H       1  ZINC000444542200    0.1500
     41 H41       -10.1012   -3.0702   57.1521 H       1  ZINC000444542200    0.1400
     42 H42       -14.5200   -3.7064   56.8429 H       1  ZINC000444542200    0.0600
     43 H43       -14.0195   -5.3072   56.2468 H       1  ZINC000444542200    0.1000
     44 H44       -14.0559   -4.9803   57.9962 H       1  ZINC000444542200    0.0600
     45 H45       -14.0563   -3.0352   58.7677 H       1  ZINC000444542200    0.1400
@<TRIPOS>BOND
     1     1     2    1
     2     1    30    1
     3     1    31    1
     4     1    32    1
     5     2     3    1
     6     3    29   ar
     7     3     4   ar
     8     4     5   ar
     9     4    33    1
    10     5     6    1
    11     5    25   ar
    12     6     7    1
    13     6     8   am
    14     7    34    1
    15     7    35    1
    16     7    36    1
    17     8     9    2
    18     8    10   am
    19    10    11    1
    20    10    37    1
    21    11    12    1
    22    11    13    1
    23    11    21    1
    24    13    19   ar
    25    13    14   ar
    26    14    15   ar
    27    14    38    1
    28    15    16   ar
    29    15    39    1
    30    16    17   ar
    31    16    40    1
    32    17    18    1
    33    17    19   ar
    34    19    20    1
    35    21    22    1
    36    21    23    1
    37    21    24    1
    38    25    26   ar
    39    25    41    1
    40    26    27    1
    41    26    29   ar
    42    27    28    1
    43    28    42    1
    44    28    43    1
    45    28    44    1
    46    29    45    1
@<TRIPOS>SUBSTRUCTURE
     1 ZINC000444542200        1 TEMP              0 ****  ****    0 ROOT


##########                                Name:    ZINC000499369364
##########                DOCK_Rotatable_Bonds:                   9
##########                         Heavy_Atoms:                  25
##########                    Molecular_Weight:             384.527
##########                DOCK_Rotatable_Bonds:                   9
##########                       Formal_Charge:        -5.88596e-07
##########                     HBond_Acceptors:                  10
##########                        HBond_Donors:                   1
##########                         Heavy_Atoms:                  25
##########                          Grid_Score:          -31.605959
##########                     Grid_vdw_energy:          -30.452095
##########                      Grid_es_energy:           -1.153865
##########           Internal_energy_repulsive:           27.397749

@<TRIPOS>MOLECULE
ZINC000499369364
 49 51 1 0 0
SMALL
USER_CHARGES


@<TRIPOS>ATOM
      1 C1        -10.4258    0.7267   54.9626 C.3     1  ZINC000499369364   -0.1500
      2 C2         -8.9706    0.2575   55.0225 C.3     1  ZINC000499369364   -0.1000
      3 C3         -8.2950    0.5177   53.6747 C.3     1  ZINC000499369364   -0.1500
      4 C4         -8.2319    1.0259   56.1202 C.3     1  ZINC000499369364    0.1500
      5 H5         -7.1953    0.6917   56.1629 H       1  ZINC000499369364    0.0900
      6 C6         -8.2726    2.5236   55.8101 C.3     1  ZINC000499369364   -0.1700
      7 N7         -8.8791    0.7767   57.4107 N.am    1  ZINC000499369364   -0.7200
      8 C8         -8.1553    0.8196   58.5469 C.2     1  ZINC000499369364    0.5100
      9 O9         -6.9687    1.0660   58.5011 O.2     1  ZINC000499369364   -0.5100
     10 C10        -8.8205    0.5615   59.8742 C.3     1  ZINC000499369364    0.1200
     11 H11        -8.0866    0.1298   60.5548 H       1  ZINC000499369364    0.1200
     12 C12        -9.3066    1.9082   60.4566 C.3     1  ZINC000499369364   -0.0800
     13 S13       -11.0814    1.8962   59.9630 S.3     1  ZINC000499369364   -0.2400
     14 C14       -11.2347    0.0663   60.0903 C.3     1  ZINC000499369364    0.1400
     15 N15        -9.8980   -0.3967   59.6791 N.am    1  ZINC000499369364   -0.6000
     16 C16        -9.6853   -1.6224   59.1608 C.2     1  ZINC000499369364    0.5600
     17 O17        -8.5656   -1.9585   58.8379 O.2     1  ZINC000499369364   -0.5000
     18 C18       -10.8389   -2.5756   58.9826 C.3     1  ZINC000499369364   -0.1500
     19 S19       -11.7770   -2.1176   57.5040 S.3     1  ZINC000499369364    0.1300
     20 C20       -13.0267   -3.3593   57.5376 C.2     1  ZINC000499369364    0.2000
     21 N21       -12.9946   -4.5175   56.9146 N.2     1  ZINC000499369364   -0.3400
     22 N22       -14.0659   -5.1851   57.1510 N.2     1  ZINC000499369364   -0.0300
     23 N23       -14.8481   -4.5169   57.9277 N.2     1  ZINC000499369364   -0.0800
     24 N24       -14.1982   -3.3036   58.2142 N.pl3   1  ZINC000499369364   -0.3300
     25 C25       -14.6875   -2.2098   59.0568 C.3     1  ZINC000499369364    0.0500
     26 C26       -16.1475   -2.2666   59.5110 C.3     1  ZINC000499369364   -0.1500
     27 C27       -15.0233   -2.5358   60.5134 C.3     1  ZINC000499369364   -0.1600
     28 H28       -10.9521    0.1794   54.1806 H       1  ZINC000499369364    0.0600
     29 H29       -10.9071    0.5414   55.9228 H       1  ZINC000499369364    0.0600
     30 H30       -10.4547    1.7937   54.7417 H       1  ZINC000499369364    0.0600
     31 H31        -8.9417   -0.8094   55.2435 H       1  ZINC000499369364    0.0800
     32 H32        -8.8213   -0.0296   52.8927 H       1  ZINC000499369364    0.0600
     33 H33        -8.3239    1.5847   53.4538 H       1  ZINC000499369364    0.0600
     34 H34        -7.2583    0.1836   53.7174 H       1  ZINC000499369364    0.0500
     35 H35        -9.3093    2.8577   55.7673 H       1  ZINC000499369364    0.0600
     36 H36        -7.7464    3.0710   56.5921 H       1  ZINC000499369364    0.0600
     37 H37        -7.7912    2.7091   54.8499 H       1  ZINC000499369364    0.0700
     38 H38        -9.8284    0.5808   57.4475 H       1  ZINC000499369364    0.4000
     39 H39        -9.2022    1.9262   61.5415 H       1  ZINC000499369364    0.1200
     40 H40        -8.7789    2.7455   60.0001 H       1  ZINC000499369364    0.1300
     41 H41       -11.4506   -0.2332   61.1158 H       1  ZINC000499369364    0.1100
     42 H42       -11.9994   -0.3061   59.4084 H       1  ZINC000499369364    0.1200
     43 H43       -10.4577   -3.5907   58.8710 H       1  ZINC000499369364    0.1300
     44 H44       -11.4896   -2.5258   59.8556 H       1  ZINC000499369364    0.1300
     45 H45       -14.2637   -1.2280   58.8456 H       1  ZINC000499369364    0.1600
     46 H46       -16.6845   -1.3222   59.5987 H       1  ZINC000499369364    0.1200
     47 H47       -16.7437   -3.1180   59.1830 H       1  ZINC000499369364    0.1200
     48 H48       -14.8801   -3.5644   60.8448 H       1  ZINC000499369364    0.1100
     49 H49       -14.8207   -1.7685   61.2606 H       1  ZINC000499369364    0.1200
@<TRIPOS>BOND
     1     1     2    1
     2     1    28    1
     3     1    29    1
     4     1    30    1
     5     2     3    1
     6     2     4    1
     7     2    31    1
     8     3    32    1
     9     3    33    1
    10     3    34    1
    11     4     5    1
    12     4     6    1
    13     4     7    1
    14     6    35    1
    15     6    36    1
    16     6    37    1
    17     7     8   am
    18     7    38    1
    19     8     9    2
    20     8    10    1
    21    10    11    1
    22    10    15    1
    23    10    12    1
    24    12    13    1
    25    12    39    1
    26    12    40    1
    27    13    14    1
    28    14    15    1
    29    14    41    1
    30    14    42    1
    31    15    16   am
    32    16    17    2
    33    16    18    1
    34    18    19    1
    35    18    43    1
    36    18    44    1
    37    19    20    1
    38    20    24    1
    39    20    21    2
    40    21    22    1
    41    22    23    2
    42    23    24    1
    43    24    25    1
    44    25    27    1
    45    25    26    1
    46    25    45    1
    47    26    27    1
    48    26    46    1
    49    26    47    1
    50    27    48    1
    51    27    49    1
@<TRIPOS>SUBSTRUCTURE
     1 ZINC000499369364        1 TEMP              0 ****  ****    0 ROOT


##########                                Name:    ZINC000062882109
##########                DOCK_Rotatable_Bonds:                   8
##########                         Heavy_Atoms:                  31
##########                    Molecular_Weight:             424.497
##########                DOCK_Rotatable_Bonds:                   8
##########                       Formal_Charge:           0.0299993
##########                     HBond_Acceptors:                   7
##########                        HBond_Donors:                   1
##########                         Heavy_Atoms:                  31
##########                          Grid_Score:          -31.589678
##########                     Grid_vdw_energy:          -30.698214
##########                      Grid_es_energy:           -0.891465
##########           Internal_energy_repulsive:          188.610016

@<TRIPOS>MOLECULE
ZINC000062882109
 59 61 1 0 0
SMALL
USER_CHARGES


@<TRIPOS>ATOM
      1 C1        -12.7857    1.2306   52.7804 C.3     1  ZINC000062882109   -0.2000
      2 C2        -11.3966    1.7918   52.6181 C.2     1  ZINC000062882109    0.3900
      3 O3        -11.2289    2.9918   52.5729 O.2     1  ZINC000062882109   -0.4500
      4 C4        -10.2433    0.8832   52.5146 C.ar    1  ZINC000062882109   -0.1300
      5 C5        -10.4340   -0.5015   52.5591 C.ar    1  ZINC000062882109   -0.1100
      6 C6         -9.3501   -1.3490   52.4618 C.ar    1  ZINC000062882109   -0.0900
      7 C7         -8.0743   -0.8346   52.3202 C.ar    1  ZINC000062882109   -0.1800
      8 C8         -7.8738    0.5391   52.2752 C.ar    1  ZINC000062882109    0.1200
      9 O9         -6.6170    1.0376   52.1359 O.3     1  ZINC000062882109   -0.2800
     10 C10        -6.4213    2.4098   52.4834 C.3     1  ZINC000062882109    0.0700
     11 H11        -7.0532    3.0375   51.8552 H       1  ZINC000062882109    0.1000
     12 C12        -4.9539    2.7861   52.2682 C.3     1  ZINC000062882109   -0.1800
     13 C13        -6.7862    2.6183   53.9307 C.2     1  ZINC000062882109    0.5200
     14 O14        -7.2821    3.6666   54.2861 O.2     1  ZINC000062882109   -0.4900
     15 N15        -6.5614    1.6399   54.8300 N.am    1  ZINC000062882109   -0.6600
     16 C16        -6.9006    1.8337   56.1754 C.ar    1  ZINC000062882109    0.1400
     17 C17        -6.3151    2.8641   56.8984 C.ar    1  ZINC000062882109   -0.1000
     18 C18        -6.6457    3.0575   58.2260 C.ar    1  ZINC000062882109   -0.1100
     19 C19        -7.5646    2.2225   58.8436 C.ar    1  ZINC000062882109    0.0800
     20 O20        -7.8752    2.4177   60.1531 O.3     1  ZINC000062882109   -0.3100
     21 C21        -9.1005    1.8626   60.6368 C.3     1  ZINC000062882109    0.0500
     22 C22        -9.1792    0.3899   60.2102 C.3     1  ZINC000062882109    0.0400
     23 N23        -9.0904    0.3469   58.7406 N.am    1  ZINC000062882109   -0.5500
     24 C24        -9.8792   -0.4731   58.0181 C.2     1  ZINC000062882109    0.5300
     25 O25        -9.7884   -0.4917   56.8088 O.2     1  ZINC000062882109   -0.5100
     26 C26       -10.8739   -1.3670   58.7130 C.3     1  ZINC000062882109   -0.0800
     27 C27       -11.5180   -2.3050   57.6902 C.3     1  ZINC000062882109   -0.1300
     28 C28       -10.1568   -2.1935   59.7823 C.3     1  ZINC000062882109   -0.1600
     29 C29       -11.9566   -0.5099   59.3718 C.3     1  ZINC000062882109   -0.1500
     30 C30        -8.1550    1.1909   58.1177 C.ar    1  ZINC000062882109    0.1000
     31 C31        -7.8271    0.9988   56.7861 C.ar    1  ZINC000062882109   -0.1400
     32 C32        -8.9531    1.4005   52.3655 C.ar    1  ZINC000062882109   -0.0900
     33 H33       -13.5035    2.0488   52.8391 H       1  ZINC000062882109    0.0900
     34 H34       -13.0245    0.5984   51.9251 H       1  ZINC000062882109    0.1000
     35 H35       -12.8340    0.6387   53.6944 H       1  ZINC000062882109    0.1000
     36 H36       -11.4288   -0.9068   52.6701 H       1  ZINC000062882109    0.1400
     37 H37        -9.4982   -2.4182   52.4967 H       1  ZINC000062882109    0.1300
     38 H38        -7.2301   -1.5038   52.2444 H       1  ZINC000062882109    0.1300
     39 H39        -4.6900    2.6352   51.2214 H       1  ZINC000062882109    0.0800
     40 H40        -4.8046    3.8328   52.5332 H       1  ZINC000062882109    0.0800
     41 H41        -4.3219    2.1584   52.8963 H       1  ZINC000062882109    0.0800
     42 H42        -6.1648    0.8016   54.5457 H       1  ZINC000062882109    0.4100
     43 H43        -5.5987    3.5167   56.4216 H       1  ZINC000062882109    0.1400
     44 H44        -6.1871    3.8604   58.7841 H       1  ZINC000062882109    0.1400
     45 H45        -9.1278    1.9300   61.7244 H       1  ZINC000062882109    0.1300
     46 H46        -9.9421    2.4110   60.2137 H       1  ZINC000062882109    0.0700
     47 H47        -8.3501   -0.1666   60.6474 H       1  ZINC000062882109    0.0900
     48 H48       -10.1266   -0.0395   60.5363 H       1  ZINC000062882109    0.1300
     49 H49       -10.7467   -2.9156   57.2209 H       1  ZINC000062882109    0.0600
     50 H50       -12.2374   -2.9516   58.1928 H       1  ZINC000062882109    0.0700
     51 H51       -12.0289   -1.7162   56.9284 H       1  ZINC000062882109    0.0700
     52 H52        -9.6979   -1.5253   60.5109 H       1  ZINC000062882109    0.0700
     53 H53       -10.8761   -2.8400   60.2848 H       1  ZINC000062882109    0.0800
     54 H54        -9.3855   -2.8041   59.3130 H       1  ZINC000062882109    0.0600
     55 H55       -12.5944   -0.0754   58.6021 H       1  ZINC000062882109    0.0700
     56 H56       -12.5587   -1.1314   60.0345 H       1  ZINC000062882109    0.0800
     57 H57       -11.4878    0.2877   59.9482 H       1  ZINC000062882109    0.0700
     58 H58        -8.2874    0.1990   56.2251 H       1  ZINC000062882109    0.1800
     59 H59        -8.7983    2.4688   52.3302 H       1  ZINC000062882109    0.1400
@<TRIPOS>BOND
     1     1     2    1
     2     1    33    1
     3     1    34    1
     4     1    35    1
     5     2     3    2
     6     2     4    1
     7     4    32   ar
     8     4     5   ar
     9     5     6   ar
    10     5    36    1
    11     6     7   ar
    12     6    37    1
    13     7     8   ar
    14     7    38    1
    15     8     9    1
    16     8    32   ar
    17     9    10    1
    18    10    11    1
    19    10    12    1
    20    10    13    1
    21    12    39    1
    22    12    40    1
    23    12    41    1
    24    13    14    2
    25    13    15   am
    26    15    16    1
    27    15    42    1
    28    16    31   ar
    29    16    17   ar
    30    17    18   ar
    31    17    43    1
    32    18    19   ar
    33    18    44    1
    34    19    30   ar
    35    19    20    1
    36    20    21    1
    37    21    22    1
    38    21    45    1
    39    21    46    1
    40    22    23    1
    41    22    47    1
    42    22    48    1
    43    23    24   am
    44    23    30    1
    45    24    25    2
    46    24    26    1
    47    26    27    1
    48    26    28    1
    49    26    29    1
    50    27    49    1
    51    27    50    1
    52    27    51    1
    53    28    52    1
    54    28    53    1
    55    28    54    1
    56    29    55    1
    57    29    56    1
    58    29    57    1
    59    30    31   ar
    60    31    58    1
    61    32    59    1
@<TRIPOS>SUBSTRUCTURE
     1 ZINC000062882109        1 TEMP              0 ****  ****    0 ROOT


##########                                Name:    ZINC000429196987
##########                DOCK_Rotatable_Bonds:                   7
##########                         Heavy_Atoms:                  28
##########                    Molecular_Weight:             403.505
##########                DOCK_Rotatable_Bonds:                   7
##########                       Formal_Charge:          -0.0399997
##########                     HBond_Acceptors:                   9
##########                        HBond_Donors:                   1
##########                         Heavy_Atoms:                  28
##########                          Grid_Score:          -31.551123
##########                     Grid_vdw_energy:          -30.459816
##########                      Grid_es_energy:           -1.091306
##########           Internal_energy_repulsive:           12.326542

@<TRIPOS>MOLECULE
ZINC000429196987
 53 55 1 0 0
SMALL
USER_CHARGES


@<TRIPOS>ATOM
      1 C1         -9.2510    1.3364   61.9694 C.3     1  ZINC000429196987    0.0800
      2 N2         -9.1527    0.6216   60.6943 N.am    1  ZINC000429196987   -0.6300
      3 C3         -9.2178   -0.8416   60.6680 C.3     1  ZINC000429196987    0.1600
      4 C4        -10.5932   -1.2756   60.2312 C.ar    1  ZINC000429196987   -0.0600
      5 C5        -10.7403   -2.3613   59.3882 C.ar    1  ZINC000429196987   -0.1300
      6 C6        -12.0020   -2.7593   58.9876 C.ar    1  ZINC000429196987   -0.0300
      7 C7        -13.1166   -2.0719   59.4301 C.ar    1  ZINC000429196987   -0.6600
      8 S8        -14.7249   -2.5790   58.9190 S.o2    1  ZINC000429196987    2.5000
      9 C9        -14.6843   -2.4568   57.1096 C.3     1  ZINC000429196987   -0.6500
     10 O10       -14.8094   -3.9381   59.3252 O.2     1  ZINC000429196987   -0.9400
     11 O11       -15.5927   -1.5956   59.4659 O.2     1  ZINC000429196987   -0.9400
     12 C12       -12.9697   -0.9871   60.2742 C.ar    1  ZINC000429196987   -0.0300
     13 C13       -11.7083   -0.5914   60.6780 C.ar    1  ZINC000429196987   -0.1100
     14 C14        -9.0025    1.3103   59.5457 C.2     1  ZINC000429196987    0.7100
     15 O15        -8.9471    2.5247   59.5677 O.2     1  ZINC000429196987   -0.5800
     16 N16        -8.9138    0.6529   58.3725 N.am    1  ZINC000429196987   -0.7400
     17 C17        -8.7523    1.4016   57.1236 C.3     1  ZINC000429196987    0.1600
     18 C18        -7.3267    1.2160   56.5963 C.3     1  ZINC000429196987   -0.1300
     19 C19        -7.1822    1.9501   55.2613 C.3     1  ZINC000429196987    0.0700
     20 N20        -8.1530    1.4138   54.2989 N.3     1  ZINC000429196987   -0.4700
     21 C21        -7.9616    1.9667   53.0374 C.ar    1  ZINC000429196987    0.2500
     22 C22        -7.3433    1.2231   52.0329 C.ar    1  ZINC000429196987   -0.1300
     23 C23        -7.1762    1.8199   50.7933 C.ar    1  ZINC000429196987   -0.1000
     24 C24        -7.6340    3.1196   50.6279 C.ar    1  ZINC000429196987    0.0200
     25 N25        -8.2079    3.7495   51.6336 N.ar    1  ZINC000429196987   -0.2200
     26 N26        -8.3709    3.2011   52.7826 N.ar    1  ZINC000429196987   -0.2800
     27 C27        -9.5307    1.6231   54.7616 C.3     1  ZINC000429196987    0.0600
     28 C28        -9.7455    0.8793   56.0818 C.3     1  ZINC000429196987   -0.1200
     29 H29        -8.2541    1.4664   62.3908 H       1  ZINC000429196987    0.0600
     30 H30        -9.7058    2.3131   61.8044 H       1  ZINC000429196987    0.0700
     31 H31        -9.8660    0.7615   62.6618 H       1  ZINC000429196987    0.0800
     32 H32        -8.4761   -1.2258   59.9677 H       1  ZINC000429196987    0.1000
     33 H33        -9.0130   -1.2325   61.6647 H       1  ZINC000429196987    0.0900
     34 H34        -9.8694   -2.8983   59.0425 H       1  ZINC000429196987    0.1300
     35 H35       -12.1169   -3.6071   58.3285 H       1  ZINC000429196987    0.1400
     36 H36       -13.9071   -3.1134   56.7184 H       1  ZINC000429196987    0.1300
     37 H37       -15.6506   -2.7556   56.7035 H       1  ZINC000429196987    0.1300
     38 H38       -14.4707   -1.4280   56.8196 H       1  ZINC000429196987    0.1300
     39 H39       -13.8406   -0.4502   60.6203 H       1  ZINC000429196987    0.1400
     40 H40       -11.5934    0.2561   61.3373 H       1  ZINC000429196987    0.1400
     41 H41        -8.9568   -0.3160   58.3549 H       1  ZINC000429196987    0.4000
     42 H42        -8.9391    2.4598   57.3066 H       1  ZINC000429196987    0.0900
     43 H43        -6.6168    1.6250   57.3153 H       1  ZINC000429196987    0.0800
     44 H44        -7.1278    0.1542   56.4512 H       1  ZINC000429196987    0.0700
     45 H45        -7.3678    3.0138   55.4099 H       1  ZINC000429196987    0.0600
     46 H46        -6.1725    1.8080   54.8762 H       1  ZINC000429196987    0.0900
     47 H47        -7.0049    0.2138   52.2153 H       1  ZINC000429196987    0.1500
     48 H48        -6.7034    1.2894   49.9800 H       1  ZINC000429196987    0.1500
     49 H49        -7.5197    3.6151   49.6751 H       1  ZINC000429196987    0.1700
     50 H50        -9.7053    2.6884   54.9124 H       1  ZINC000429196987    0.0500
     51 H51       -10.2268    1.2435   54.0136 H       1  ZINC000429196987    0.0900
     52 H52        -9.5846   -0.1878   55.9286 H       1  ZINC000429196987    0.0800
     53 H53       -10.7635    1.0476   56.4330 H       1  ZINC000429196987    0.0800
@<TRIPOS>BOND
     1     1     2    1
     2     1    29    1
     3     1    30    1
     4     1    31    1
     5     2     3    1
     6     2    14   am
     7     3     4    1
     8     3    32    1
     9     3    33    1
    10     4    13   ar
    11     4     5   ar
    12     5     6   ar
    13     5    34    1
    14     6     7   ar
    15     6    35    1
    16     7     8    1
    17     7    12   ar
    18     8     9    1
    19     8    10    2
    20     8    11    2
    21     9    36    1
    22     9    37    1
    23     9    38    1
    24    12    13   ar
    25    12    39    1
    26    13    40    1
    27    14    15    2
    28    14    16   am
    29    16    17    1
    30    16    41    1
    31    17    28    1
    32    17    18    1
    33    17    42    1
    34    18    19    1
    35    18    43    1
    36    18    44    1
    37    19    20    1
    38    19    45    1
    39    19    46    1
    40    20    21    1
    41    20    27    1
    42    21    26   ar
    43    21    22   ar
    44    22    23   ar
    45    22    47    1
    46    23    24   ar
    47    23    48    1
    48    24    25   ar
    49    24    49    1
    50    25    26   ar
    51    27    28    1
    52    27    50    1
    53    27    51    1
    54    28    52    1
    55    28    53    1
@<TRIPOS>SUBSTRUCTURE
     1 ZINC000429196987        1 TEMP              0 ****  ****    0 ROOT


##########                                Name:    ZINC000523153175
##########                DOCK_Rotatable_Bonds:                   9
##########                         Heavy_Atoms:                  30
##########                    Molecular_Weight:             413.603
##########                DOCK_Rotatable_Bonds:                   9
##########                       Formal_Charge:           0.0499987
##########                     HBond_Acceptors:                   5
##########                        HBond_Donors:                   1
##########                         Heavy_Atoms:                  30
##########                          Grid_Score:          -31.488991
##########                     Grid_vdw_energy:          -30.453320
##########                      Grid_es_energy:           -1.035671
##########           Internal_energy_repulsive:           34.921700

@<TRIPOS>MOLECULE
ZINC000523153175
 69 71 1 0 0
SMALL
USER_CHARGES


@<TRIPOS>ATOM
      1 C1        -10.6324    2.5254   66.8841 C.3     1  ZINC000523153175   -0.1500
      2 C2        -11.5796    2.9441   65.7577 C.3     1  ZINC000523153175   -0.0600
      3 C3        -11.5985    4.4701   65.6480 C.3     1  ZINC000523153175   -0.1400
      4 C4        -11.1042    2.3527   64.4557 C.ar    1  ZINC000523153175   -0.0800
      5 C5        -12.0154    2.0445   63.4630 C.ar    1  ZINC000523153175   -0.1100
      6 C6        -11.5793    1.5020   62.2686 C.ar    1  ZINC000523153175   -0.1100
      7 C7        -10.2318    1.2681   62.0669 C.ar    1  ZINC000523153175   -0.0800
      8 C8         -9.7565    0.6762   60.7651 C.3     1  ZINC000523153175   -0.0300
      9 H9        -10.6163    0.4376   60.1391 H       1  ZINC000523153175    0.0800
     10 C10        -8.8635    1.6862   60.0416 C.3     1  ZINC000523153175   -0.1500
     11 C11        -8.9600   -0.5996   61.0457 C.3     1  ZINC000523153175   -0.1300
     12 C12        -8.9037   -1.4414   59.7970 C.2     1  ZINC000523153175    0.5200
     13 O13        -7.9179   -1.4143   59.0913 O.2     1  ZINC000523153175   -0.5300
     14 N14        -9.9491   -2.2245   59.4645 N.am    1  ZINC000523153175   -0.6200
     15 C15       -11.1575   -2.2663   60.3021 C.3     1  ZINC000523153175    0.1100
     16 C16       -12.3786   -2.0313   59.4068 C.3     1  ZINC000523153175    0.0400
     17 N17       -12.3595   -2.9920   58.2957 N.3     1  ZINC000523153175   -0.5100
     18 C18       -13.5993   -2.9149   57.5116 C.3     1  ZINC000523153175    0.0600
     19 H19       -13.4041   -3.2411   56.4901 H       1  ZINC000523153175    0.1100
     20 C20       -14.6589   -3.8205   58.1424 C.3     1  ZINC000523153175   -0.1800
     21 C21       -14.0975   -1.4926   57.4983 C.2     1  ZINC000523153175    0.5200
     22 O22       -14.9513   -1.1417   58.2848 O.2     1  ZINC000523153175   -0.5200
     23 N23       -13.5940   -0.6106   56.6121 N.am    1  ZINC000523153175   -0.7200
     24 C24       -14.0771    0.7724   56.6003 C.3     1  ZINC000523153175    0.1400
     25 C25       -13.1349    1.6684   57.4305 C.3     1  ZINC000523153175   -0.1300
     26 C26       -12.1723    2.2810   56.3831 C.3     1  ZINC000523153175   -0.1300
     27 C27       -13.1036    2.5380   55.1724 C.3     1  ZINC000523153175   -0.1300
     28 C28       -14.0572    1.3254   55.1644 C.3     1  ZINC000523153175   -0.1300
     29 C29       -11.1821   -2.7936   57.4399 C.3     1  ZINC000523153175    0.0400
     30 C30        -9.9144   -3.0552   58.2513 C.3     1  ZINC000523153175    0.1200
     31 C31        -9.3206    1.5776   63.0591 C.ar    1  ZINC000523153175   -0.1100
     32 C32        -9.7562    2.1237   64.2520 C.ar    1  ZINC000523153175   -0.1200
     33 H33       -10.9763    2.9532   67.8258 H       1  ZINC000523153175    0.0600
     34 H34       -10.6190    1.4384   66.9622 H       1  ZINC000523153175    0.0600
     35 H35        -9.6273    2.8865   66.6665 H       1  ZINC000523153175    0.0600
     36 H36       -12.5848    2.5831   65.9752 H       1  ZINC000523153175    0.0800
     37 H37       -10.5933    4.8311   65.4305 H       1  ZINC000523153175    0.0600
     38 H38       -12.2731    4.7683   64.8455 H       1  ZINC000523153175    0.0600
     39 H39       -11.9423    4.8979   66.5898 H       1  ZINC000523153175    0.0600
     40 H40       -13.0682    2.2272   63.6205 H       1  ZINC000523153175    0.1200
     41 H41       -12.2913    1.2605   61.4932 H       1  ZINC000523153175    0.1200
     42 H42        -8.5196    1.2581   59.1000 H       1  ZINC000523153175    0.0800
     43 H43        -9.4309    2.5952   59.8418 H       1  ZINC000523153175    0.0600
     44 H44        -8.0037    1.9249   60.6677 H       1  ZINC000523153175    0.0500
     45 H45        -7.9477   -0.3360   61.3520 H       1  ZINC000523153175    0.0900
     46 H46        -9.4455   -1.1633   61.8423 H       1  ZINC000523153175    0.0900
     47 H47       -11.2371   -3.2420   60.7814 H       1  ZINC000523153175    0.0800
     48 H48       -11.1041   -1.4857   61.0610 H       1  ZINC000523153175    0.0900
     49 H49       -13.2892   -2.1681   59.9903 H       1  ZINC000523153175    0.0900
     50 H50       -12.3492   -1.0164   59.0104 H       1  ZINC000523153175    0.0400
     51 H51       -14.8542   -3.4943   59.1640 H       1  ZINC000523153175    0.0700
     52 H52       -15.5788   -3.7632   57.5606 H       1  ZINC000523153175    0.0700
     53 H53       -14.2986   -4.8493   58.1521 H       1  ZINC000523153175    0.0700
     54 H54       -12.9120   -0.8917   55.9822 H       1  ZINC000523153175    0.4000
     55 H55       -15.0885    0.8179   57.0039 H       1  ZINC000523153175    0.0900
     56 H56       -13.6999    2.4526   57.9343 H       1  ZINC000523153175    0.0700
     57 H57       -12.5806    1.0711   58.1547 H       1  ZINC000523153175    0.0700
     58 H58       -11.7476    3.2158   56.7490 H       1  ZINC000523153175    0.0700
     59 H59       -11.3851    1.5739   56.1217 H       1  ZINC000523153175    0.0700
     60 H60       -13.6635    3.4627   55.3113 H       1  ZINC000523153175    0.0700
     61 H61       -12.5265    2.5755   54.2484 H       1  ZINC000523153175    0.0700
     62 H62       -13.6882    0.5647   54.4764 H       1  ZINC000523153175    0.0700
     63 H63       -15.0589    1.6400   54.8716 H       1  ZINC000523153175    0.0800
     64 H64       -11.2249   -3.4833   56.5969 H       1  ZINC000523153175    0.1000
     65 H65       -11.1694   -1.7680   57.0710 H       1  ZINC000523153175    0.0400
     66 H66        -9.0386   -2.7988   57.6551 H       1  ZINC000523153175    0.1000
     67 H67        -9.8720   -4.1066   58.5358 H       1  ZINC000523153175    0.0800
     68 H68        -8.2678    1.3952   62.9014 H       1  ZINC000523153175    0.1200
     69 H69        -9.0442    2.3655   65.0272 H       1  ZINC000523153175    0.1200
@<TRIPOS>BOND
     1     1     2    1
     2     1    33    1
     3     1    34    1
     4     1    35    1
     5     2     3    1
     6     2     4    1
     7     2    36    1
     8     3    37    1
     9     3    38    1
    10     3    39    1
    11     4    32   ar
    12     4     5   ar
    13     5     6   ar
    14     5    40    1
    15     6     7   ar
    16     6    41    1
    17     7     8    1
    18     7    31   ar
    19     8     9    1
    20     8    10    1
    21     8    11    1
    22    10    42    1
    23    10    43    1
    24    10    44    1
    25    11    12    1
    26    11    45    1
    27    11    46    1
    28    12    13    2
    29    12    14   am
    30    14    30    1
    31    14    15    1
    32    15    16    1
    33    15    47    1
    34    15    48    1
    35    16    17    1
    36    16    49    1
    37    16    50    1
    38    17    18    1
    39    17    29    1
    40    18    19    1
    41    18    20    1
    42    18    21    1
    43    20    51    1
    44    20    52    1
    45    20    53    1
    46    21    22    2
    47    21    23   am
    48    23    24    1
    49    23    54    1
    50    24    28    1
    51    24    25    1
    52    24    55    1
    53    25    26    1
    54    25    56    1
    55    25    57    1
    56    26    27    1
    57    26    58    1
    58    26    59    1
    59    27    28    1
    60    27    60    1
    61    27    61    1
    62    28    62    1
    63    28    63    1
    64    29    30    1
    65    29    64    1
    66    29    65    1
    67    30    66    1
    68    30    67    1
    69    31    32   ar
    70    31    68    1
    71    32    69    1
@<TRIPOS>SUBSTRUCTURE
     1 ZINC000523153175        1 TEMP              0 ****  ****    0 ROOT


##########                                Name:    ZINC000279593480
##########                DOCK_Rotatable_Bonds:                   9
##########                         Heavy_Atoms:                  23
##########                    Molecular_Weight:              340.85
##########                DOCK_Rotatable_Bonds:                   9
##########                       Formal_Charge:          -0.0500002
##########                     HBond_Acceptors:                   6
##########                        HBond_Donors:                   3
##########                         Heavy_Atoms:                  23
##########                          Grid_Score:          -31.482248
##########                     Grid_vdw_energy:          -30.445038
##########                      Grid_es_energy:           -1.037211
##########           Internal_energy_repulsive:           18.153442

@<TRIPOS>MOLECULE
ZINC000279593480
 48 49 1 0 0
SMALL
USER_CHARGES


@<TRIPOS>ATOM
      1 C1        -10.1012   -2.4401   58.8786 C.3     1  ZINC000279593480   -0.1400
      2 C2        -10.2606   -1.2389   59.8129 C.3     1  ZINC000279593480   -0.1400
      3 C3         -9.2124   -0.1799   59.4654 C.3     1  ZINC000279593480    0.1700
      4 H4         -8.2157   -0.5812   59.6488 H       1  ZINC000279593480    0.0900
      5 C5         -9.4315    1.0592   60.3356 C.3     1  ZINC000279593480   -0.0900
      6 C6         -9.2416    0.6948   61.7856 C.ar    1  ZINC000279593480   -0.0800
      7 C7        -10.0389    1.2757   62.7541 C.ar    1  ZINC000279593480   -0.1000
      8 C8         -9.8652    0.9418   64.0840 C.ar    1  ZINC000279593480   -0.1100
      9 C9         -8.8932    0.0261   64.4459 C.ar    1  ZINC000279593480   -0.0400
     10 Cl10       -8.6748   -0.3941   66.1161 Cl      1  ZINC000279593480   -0.0700
     11 C11        -8.0957   -0.5548   63.4761 C.ar    1  ZINC000279593480   -0.1100
     12 C12        -8.2740   -0.2244   62.1459 C.ar    1  ZINC000279593480   -0.1000
     13 N13        -9.3386    0.1870   58.0527 N.am    1  ZINC000279593480   -0.7400
     14 C14        -8.2920    0.7325   57.4020 C.2     1  ZINC000279593480    0.7100
     15 O15        -7.2425    0.9188   57.9871 O.2     1  ZINC000279593480   -0.5800
     16 N16        -8.4085    1.0716   56.1028 N.am    1  ZINC000279593480   -0.7500
     17 C17        -7.2703    1.6629   55.3951 C.3     1  ZINC000279593480    0.1200
     18 C18        -7.6704    1.9670   53.9499 C.3     1  ZINC000279593480    0.0900
     19 O19        -8.8123    2.8256   53.9179 O.3     1  ZINC000279593480   -0.5400
     20 C20        -6.4892    2.6033   53.1837 C.3     1  ZINC000279593480   -0.1900
     21 C21        -6.2004    1.6037   52.0419 C.3     1  ZINC000279593480    0.0500
     22 O22        -7.4429    0.8928   51.8507 O.3     1  ZINC000279593480   -0.3600
     23 C23        -7.9555    0.6581   53.1805 C.3     1  ZINC000279593480    0.0900
     24 H24        -7.4333   -0.1774   53.6465 H       1  ZINC000279593480    0.0800
     25 C25        -9.4599    0.3837   53.1307 C.3     1  ZINC000279593480   -0.1400
     26 H26        -9.1037   -2.8632   58.9978 H       1  ZINC000279593480    0.0600
     27 H27       -10.8479   -3.1944   59.1262 H       1  ZINC000279593480    0.0400
     28 H28       -10.2383   -2.1182   57.8463 H       1  ZINC000279593480    0.0600
     29 H29       -11.2580   -0.8157   59.6937 H       1  ZINC000279593480    0.0600
     30 H30       -10.1234   -1.5608   60.8452 H       1  ZINC000279593480    0.0700
     31 H31        -8.7129    1.8302   60.0576 H       1  ZINC000279593480    0.0800
     32 H32       -10.4436    1.4347   60.1849 H       1  ZINC000279593480    0.0900
     33 H33       -10.7974    1.9907   62.4715 H       1  ZINC000279593480    0.1300
     34 H34       -10.4879    1.3959   64.8407 H       1  ZINC000279593480    0.1300
     35 H35        -7.3365   -1.2695   63.7580 H       1  ZINC000279593480    0.1300
     36 H36        -7.6517   -0.6782   61.3888 H       1  ZINC000279593480    0.1300
     37 H37       -10.1755    0.0373   57.5856 H       1  ZINC000279593480    0.3900
     38 H38        -9.2462    0.9241   55.6364 H       1  ZINC000279593480    0.3900
     39 H39        -6.9736    2.5865   55.8920 H       1  ZINC000279593480    0.0800
     40 H40        -6.4350    0.9626   55.4011 H       1  ZINC000279593480    0.0800
     41 H41        -9.0506    3.1301   53.0316 H       1  ZINC000279593480    0.3700
     42 H42        -6.7754    3.5738   52.7784 H       1  ZINC000279593480    0.0900
     43 H43        -5.6202    2.7013   53.8344 H       1  ZINC000279593480    0.0900
     44 H44        -5.9242    2.1364   51.1319 H       1  ZINC000279593480    0.1000
     45 H45        -5.4090    0.9131   52.3332 H       1  ZINC000279593480    0.0600
     46 H46        -9.6465   -0.5119   52.5381 H       1  ZINC000279593480    0.0600
     47 H47        -9.8357    0.2345   54.1429 H       1  ZINC000279593480    0.0700
     48 H48        -9.9693    1.2331   52.6755 H       1  ZINC000279593480    0.0700
@<TRIPOS>BOND
     1     1     2    1
     2     1    26    1
     3     1    27    1
     4     1    28    1
     5     2     3    1
     6     2    29    1
     7     2    30    1
     8     3     4    1
     9     3     5    1
    10     3    13    1
    11     5     6    1
    12     5    31    1
    13     5    32    1
    14     6    12   ar
    15     6     7   ar
    16     7     8   ar
    17     7    33    1
    18     8     9   ar
    19     8    34    1
    20     9    10    1
    21     9    11   ar
    22    11    12   ar
    23    11    35    1
    24    12    36    1
    25    13    14   am
    26    13    37    1
    27    14    15    2
    28    14    16   am
    29    16    17    1
    30    16    38    1
    31    17    18    1
    32    17    39    1
    33    17    40    1
    34    18    23    1
    35    18    19    1
    36    18    20    1
    37    19    41    1
    38    20    21    1
    39    20    42    1
    40    20    43    1
    41    21    22    1
    42    21    44    1
    43    21    45    1
    44    22    23    1
    45    23    24    1
    46    23    25    1
    47    25    46    1
    48    25    47    1
    49    25    48    1
@<TRIPOS>SUBSTRUCTURE
     1 ZINC000279593480        1 TEMP              0 ****  ****    0 ROOT


##########                                Name:    ZINC000600609084
##########                DOCK_Rotatable_Bonds:                   8
##########                         Heavy_Atoms:                  30
##########                    Molecular_Weight:             422.548
##########                DOCK_Rotatable_Bonds:                   8
##########                       Formal_Charge:           0.0100005
##########                     HBond_Acceptors:                   6
##########                        HBond_Donors:                   2
##########                         Heavy_Atoms:                  30
##########                          Grid_Score:          -31.472034
##########                     Grid_vdw_energy:          -30.998066
##########                      Grid_es_energy:           -0.473969
##########           Internal_energy_repulsive:           30.435686

@<TRIPOS>MOLECULE
ZINC000600609084
 56 59 1 0 0
SMALL
USER_CHARGES


@<TRIPOS>ATOM
      1 O1        -10.7436   -2.5553   57.5233 O.2     1  ZINC000600609084   -0.5300
      2 C2        -11.0329   -1.3796   57.4537 C.2     1  ZINC000600609084    0.5200
      3 C3        -11.9809   -0.8990   56.3852 C.3     1  ZINC000600609084   -0.1500
      4 C4        -11.1849   -0.2496   55.2515 C.3     1  ZINC000600609084    0.1300
      5 N5        -10.4183   -1.2768   54.5423 N.am    1  ZINC000600609084   -1.1200
      6 S6        -10.0182   -1.0598   52.9500 S.o2    1  ZINC000600609084    2.7000
      7 O7         -9.1612   -2.1381   52.6010 O.2     1  ZINC000600609084   -0.9600
      8 O8        -11.2318   -0.7788   52.2661 O.2     1  ZINC000600609084   -0.9500
      9 C9         -9.0418    0.4036   52.8523 C.ar    1  ZINC000600609084   -0.6700
     10 C10        -9.6399    1.6434   53.0684 C.ar    1  ZINC000600609084   -0.0400
     11 C11        -8.9142    2.7931   53.0003 C.ar    1  ZINC000600609084   -0.1200
     12 C12        -7.5413    2.7323   52.7081 C.ar    1  ZINC000600609084   -0.0100
     13 C13        -6.7592    3.8973   52.6299 C.ar    1  ZINC000600609084   -0.1200
     14 C14        -5.4321    3.7997   52.3450 C.ar    1  ZINC000600609084   -0.0900
     15 C15        -4.8338    2.5595   52.1287 C.ar    1  ZINC000600609084   -0.1200
     16 C16        -5.5594    1.4101   52.1962 C.ar    1  ZINC000600609084   -0.0900
     17 C17        -6.9328    1.4710   52.4882 C.ar    1  ZINC000600609084   -0.0800
     18 C18        -7.7132    0.3057   52.5723 C.ar    1  ZINC000600609084    0.0200
     19 N19       -10.5112   -0.5038   58.3353 N.am    1  ZINC000600609084   -0.7200
     20 C20        -9.5898   -0.9711   59.3738 C.3     1  ZINC000600609084    0.1400
     21 H21        -9.1365   -1.9156   59.0731 H       1  ZINC000600609084    0.1000
     22 C22        -8.4963    0.0830   59.6214 C.3     1  ZINC000600609084   -0.1300
     23 C23        -8.6233    0.5113   61.0979 C.3     1  ZINC000600609084   -0.1300
     24 C24       -10.0919    0.1823   61.4640 C.3     1  ZINC000600609084   -0.1200
     25 C25       -10.3432   -1.1477   60.7083 C.3     1  ZINC000600609084   -0.0700
     26 H26        -9.9349   -1.9882   61.2694 H       1  ZINC000600609084    0.0900
     27 C27       -11.8172   -1.3448   60.4636 C.ar    1  ZINC000600609084   -0.0600
     28 C28       -12.6433   -0.2487   60.2998 C.ar    1  ZINC000600609084   -0.1100
     29 C29       -13.9953   -0.4296   60.0755 C.ar    1  ZINC000600609084   -0.1200
     30 C30       -14.5210   -1.7067   60.0143 C.ar    1  ZINC000600609084   -0.1200
     31 C31       -13.6946   -2.8028   60.1773 C.ar    1  ZINC000600609084   -0.1200
     32 C32       -12.3420   -2.6220   60.3974 C.ar    1  ZINC000600609084   -0.1100
     33 H33       -12.5464   -1.7447   55.9940 H       1  ZINC000600609084    0.1000
     34 H34       -12.6684   -0.1683   56.8114 H       1  ZINC000600609084    0.1000
     35 H35       -11.8710    0.2359   54.5574 H       1  ZINC000600609084    0.0900
     36 H36       -10.5020    0.4923   55.6657 H       1  ZINC000600609084    0.0800
     37 H37       -10.1449   -2.0842   55.0053 H       1  ZINC000600609084    0.4200
     38 H38       -10.6951    1.6930   53.2928 H       1  ZINC000600609084    0.1400
     39 H39        -9.3914    3.7471   53.1697 H       1  ZINC000600609084    0.1400
     40 H40        -7.2091    4.8653   52.7948 H       1  ZINC000600609084    0.1300
     41 H41        -4.8335    4.6966   52.2851 H       1  ZINC000600609084    0.1300
     42 H42        -3.7786    2.5100   51.9038 H       1  ZINC000600609084    0.1300
     43 H43        -5.0824    0.4562   52.0260 H       1  ZINC000600609084    0.1300
     44 H44        -7.2622   -0.6624   52.4119 H       1  ZINC000600609084    0.1500
     45 H45       -10.7460    0.4358   58.2821 H       1  ZINC000600609084    0.4000
     46 H46        -7.5125   -0.3503   59.4416 H       1  ZINC000600609084    0.0800
     47 H47        -8.6513    0.9422   58.9687 H       1  ZINC000600609084    0.0700
     48 H48        -7.9372   -0.0617   61.7217 H       1  ZINC000600609084    0.0700
     49 H49        -8.4342    1.5796   61.2029 H       1  ZINC000600609084    0.0700
     50 H50       -10.1998    0.0416   62.5395 H       1  ZINC000600609084    0.0700
     51 H51       -10.7633    0.9628   61.1061 H       1  ZINC000600609084    0.0700
     52 H52       -12.2326    0.7489   60.3475 H       1  ZINC000600609084    0.1200
     53 H53       -14.6408    0.4267   59.9482 H       1  ZINC000600609084    0.1200
     54 H54       -15.5774   -1.8480   59.8398 H       1  ZINC000600609084    0.1200
     55 H55       -14.1054   -3.8005   60.1299 H       1  ZINC000600609084    0.1200
     56 H56       -11.6964   -3.4784   60.5247 H       1  ZINC000600609084    0.1200
@<TRIPOS>BOND
     1     1     2    2
     2     2     3    1
     3     2    19   am
     4     3     4    1
     5     3    33    1
     6     3    34    1
     7     4     5    1
     8     4    35    1
     9     4    36    1
    10     5     6   am
    11     5    37    1
    12     6     7    2
    13     6     8    2
    14     6     9    1
    15     9    18   ar
    16     9    10   ar
    17    10    11   ar
    18    10    38    1
    19    11    12   ar
    20    11    39    1
    21    12    17   ar
    22    12    13   ar
    23    13    14   ar
    24    13    40    1
    25    14    15   ar
    26    14    41    1
    27    15    16   ar
    28    15    42    1
    29    16    17   ar
    30    16    43    1
    31    17    18   ar
    32    18    44    1
    33    19    20    1
    34    19    45    1
    35    20    21    1
    36    20    25    1
    37    20    22    1
    38    22    23    1
    39    22    46    1
    40    22    47    1
    41    23    24    1
    42    23    48    1
    43    23    49    1
    44    24    25    1
    45    24    50    1
    46    24    51    1
    47    25    26    1
    48    25    27    1
    49    27    32   ar
    50    27    28   ar
    51    28    29   ar
    52    28    52    1
    53    29    30   ar
    54    29    53    1
    55    30    31   ar
    56    30    54    1
    57    31    32   ar
    58    31    55    1
    59    32    56    1
@<TRIPOS>SUBSTRUCTURE
     1 ZINC000600609084        1 TEMP              0 ****  ****    0 ROOT


##########                                Name:    ZINC000007167963
##########                DOCK_Rotatable_Bonds:                   8
##########                         Heavy_Atoms:                  25
##########                    Molecular_Weight:             378.433
##########                DOCK_Rotatable_Bonds:                   8
##########                       Formal_Charge:        -1.01328e-06
##########                     HBond_Acceptors:                  10
##########                        HBond_Donors:                   3
##########                         Heavy_Atoms:                  25
##########                          Grid_Score:          -31.471392
##########                     Grid_vdw_energy:          -30.201624
##########                      Grid_es_energy:           -1.269769
##########           Internal_energy_repulsive:           10.201854

@<TRIPOS>MOLECULE
ZINC000007167963
 39 41 1 0 0
SMALL
USER_CHARGES


@<TRIPOS>ATOM
      1 C1         -5.1306    2.7846   57.1106 C.3     1  ZINC000007167963   -0.0800
      2 C2         -5.9437    2.8162   55.8421 C.2     1  ZINC000007167963    0.0900
      3 C3         -7.0581    2.0759   55.5924 C.2     1  ZINC000007167963   -0.1500
      4 C4         -7.7010    1.0982   56.4953 C.2     1  ZINC000007167963    0.2600
      5 N5         -8.7788    0.3975   56.2395 N.2     1  ZINC000007167963   -0.2700
      6 N6         -9.0520   -0.3511   57.2495 N.2     1  ZINC000007167963   -0.2800
      7 C7         -8.1593   -0.1582   58.1907 C.2     1  ZINC000007167963    0.1200
      8 S8         -8.1106   -0.9560   59.7610 S.3     1  ZINC000007167963    0.1500
      9 C9         -9.5541   -0.1954   60.5447 C.3     1  ZINC000007167963   -0.1200
     10 H10        -9.5728   -0.4565   61.6028 H       1  ZINC000007167963    0.1400
     11 C11        -9.4731    1.3252   60.3961 C.3     1  ZINC000007167963   -0.1500
     12 C12       -10.8098   -0.6988   59.8808 C.2     1  ZINC000007167963    0.5300
     13 O13       -11.5687    0.0825   59.3474 O.2     1  ZINC000007167963   -0.4900
     14 N14       -11.0894   -2.0173   59.8798 N.am    1  ZINC000007167963   -0.6100
     15 C15       -12.2439   -2.4807   59.2675 C.2     1  ZINC000007167963    0.0800
     16 C16       -12.2791   -3.1316   58.0616 C.2     1  ZINC000007167963   -0.2400
     17 C17       -11.0855   -3.4217   57.2611 C.2     1  ZINC000007167963    0.5900
     18 N18       -10.9132   -2.8223   56.0663 N.am    1  ZINC000007167963   -0.8400
     19 O19       -10.2502   -4.2039   57.6755 O.2     1  ZINC000007167963   -0.5600
     20 C20       -13.6193   -3.5027   57.6636 C.2     1  ZINC000007167963   -0.0900
     21 C21       -14.5432   -3.1400   58.5421 C.2     1  ZINC000007167963   -0.2800
     22 S22       -13.8132   -2.3254   59.9141 S.3     1  ZINC000007167963    0.3000
     23 O23        -7.2827    0.7577   57.7342 O.3     1  ZINC000007167963   -0.2000
     24 C24        -7.4897    2.4510   54.2395 C.2     1  ZINC000007167963   -0.1800
     25 C25        -6.6072    3.3678   53.8098 C.2     1  ZINC000007167963   -0.0300
     26 O26        -5.6955    3.5825   54.7703 O.3     1  ZINC000007167963   -0.1700
     27 H27        -4.2999    3.4854   57.0272 H       1  ZINC000007167963    0.0800
     28 H28        -5.7612    3.0675   57.9535 H       1  ZINC000007167963    0.1000
     29 H29        -4.7427    1.7783   57.2686 H       1  ZINC000007167963    0.1000
     30 H30        -8.5648    1.6894   60.8762 H       1  ZINC000007167963    0.0900
     31 H31        -9.4544    1.5863   59.3380 H       1  ZINC000007167963    0.0800
     32 H32       -10.3422    1.7832   60.8680 H       1  ZINC000007167963    0.0800
     33 H33       -10.4829   -2.6419   60.3075 H       1  ZINC000007167963    0.4400
     34 H34       -10.1240   -3.0152   55.5363 H       1  ZINC000007167963    0.4000
     35 H35       -11.5783   -2.1980   55.7365 H       1  ZINC000007167963    0.4100
     36 H36       -13.8443   -4.0219   56.7438 H       1  ZINC000007167963    0.1500
     37 H37       -15.6015   -3.3243   58.4303 H       1  ZINC000007167963    0.1700
     38 H38        -8.3428    2.0671   53.6998 H       1  ZINC000007167963    0.1600
     39 H39        -6.6304    3.8568   52.8472 H       1  ZINC000007167963    0.2200
@<TRIPOS>BOND
     1     1     2    1
     2     1    27    1
     3     1    28    1
     4     1    29    1
     5     2    26    1
     6     2     3    2
     7     3     4    1
     8     3    24    1
     9     4    23    1
    10     4     5    2
    11     5     6    1
    12     6     7    2
    13     7     8    1
    14     7    23    1
    15     8     9    1
    16     9    10    1
    17     9    11    1
    18     9    12    1
    19    11    30    1
    20    11    31    1
    21    11    32    1
    22    12    13    2
    23    12    14   am
    24    14    15    1
    25    14    33    1
    26    15    22    1
    27    15    16    2
    28    16    17    1
    29    16    20    1
    30    17    18   am
    31    17    19    2
    32    18    34    1
    33    18    35    1
    34    20    21    2
    35    20    36    1
    36    21    22    1
    37    21    37    1
    38    24    25    2
    39    24    38    1
    40    25    26    1
    41    25    39    1
@<TRIPOS>SUBSTRUCTURE
     1 ZINC000007167963        1 TEMP              0 ****  ****    0 ROOT


##########                                Name:    ZINC000410354665
##########                DOCK_Rotatable_Bonds:                   7
##########                         Heavy_Atoms:                  29
##########                    Molecular_Weight:             417.889
##########                DOCK_Rotatable_Bonds:                   7
##########                       Formal_Charge:        -3.72529e-08
##########                     HBond_Acceptors:                   7
##########                        HBond_Donors:                   1
##########                         Heavy_Atoms:                  29
##########                          Grid_Score:          -31.469814
##########                     Grid_vdw_energy:          -29.663010
##########                      Grid_es_energy:           -1.806804
##########           Internal_energy_repulsive:           45.177036

@<TRIPOS>MOLECULE
ZINC000410354665
 53 56 1 0 0
SMALL
USER_CHARGES


@<TRIPOS>ATOM
      1 C1         -6.4563    3.7928   58.8668 C.3     1  ZINC000410354665    0.0200
      2 O2         -6.2388    3.4584   57.4947 O.3     1  ZINC000410354665   -0.3000
      3 C3         -6.9741    2.4343   56.9846 C.ar    1  ZINC000410354665    0.0900
      4 C4         -7.5365    1.4994   57.8314 C.ar    1  ZINC000410354665   -0.1100
      5 C5         -8.2921    0.4485   57.3038 C.ar    1  ZINC000410354665   -0.1400
      6 C6         -8.8958   -0.5531   58.2043 C.2     1  ZINC000410354665    0.5700
      7 O7         -9.4296   -1.5429   57.7420 O.2     1  ZINC000410354665   -0.5300
      8 N8         -8.8553   -0.3705   59.5390 N.am    1  ZINC000410354665   -0.7200
      9 C9         -9.4529   -1.3656   60.4329 C.3     1  ZINC000410354665    0.1700
     10 C10       -10.9544   -1.3073   60.3173 C.ar    1  ZINC000410354665   -0.1000
     11 C11       -11.6397   -0.2015   60.7841 C.ar    1  ZINC000410354665   -0.0900
     12 C12       -13.0180   -0.1454   60.6818 C.ar    1  ZINC000410354665   -0.0300
     13 Cl13      -13.8757    1.2448   61.2697 Cl      1  ZINC000410354665   -0.0400
     14 C14       -13.7157   -1.1994   60.1090 C.ar    1  ZINC000410354665    0.0700
     15 O15       -15.0726   -1.1338   60.0219 O.3     1  ZINC000410354665   -0.2900
     16 C16       -15.7034   -2.0390   59.1094 C.3     1  ZINC000410354665    0.0200
     17 C17       -15.0965   -3.4329   59.3183 C.3     1  ZINC000410354665    0.0200
     18 O18       -13.6894   -3.3516   59.0666 O.3     1  ZINC000410354665   -0.3000
     19 C19       -13.0255   -2.3090   59.6364 C.ar    1  ZINC000410354665    0.0600
     20 C20       -11.6431   -2.3571   59.7393 C.ar    1  ZINC000410354665   -0.0900
     21 C21        -8.4751    0.3485   55.9228 C.ar    1  ZINC000410354665   -0.0800
     22 C22        -7.9107    1.2846   55.0832 C.ar    1  ZINC000410354665   -0.1900
     23 C23        -7.1652    2.3316   55.6071 C.ar    1  ZINC000410354665    0.1400
     24 O24        -6.6112    3.2514   54.7759 O.3     1  ZINC000410354665   -0.2900
     25 C25        -6.8468    3.0860   53.3762 C.3     1  ZINC000410354665    0.0700
     26 C26        -8.3516    3.2639   53.0551 C.3     1  ZINC000410354665   -0.1500
     27 C27        -8.3371    3.6595   51.5576 C.3     1  ZINC000410354665   -0.1200
     28 C28        -7.1015    4.5727   51.4194 C.3     1  ZINC000410354665   -0.1200
     29 C29        -6.1539    4.2080   52.5757 C.3     1  ZINC000410354665   -0.1200
     30 H30        -7.4977    4.0804   59.0100 H       1  ZINC000410354665    0.0600
     31 H31        -6.2286    2.9292   59.4917 H       1  ZINC000410354665    0.0600
     32 H32        -5.8082    4.6238   59.1454 H       1  ZINC000410354665    0.1000
     33 H33        -7.3925    1.5800   58.8986 H       1  ZINC000410354665    0.1500
     34 H34        -8.4305    0.4196   59.9078 H       1  ZINC000410354665    0.4000
     35 H35        -9.1054   -2.3603   60.1535 H       1  ZINC000410354665    0.0800
     36 H36        -9.1592   -1.1536   61.4609 H       1  ZINC000410354665    0.0900
     37 H37       -11.0983    0.6198   61.2299 H       1  ZINC000410354665    0.1500
     38 H38       -16.7751   -2.0714   59.3057 H       1  ZINC000410354665    0.1300
     39 H39       -15.5266   -1.7108   58.0851 H       1  ZINC000410354665    0.0800
     40 H40       -15.2681   -3.7585   60.3443 H       1  ZINC000410354665    0.0800
     41 H41       -15.5535   -4.1402   58.6263 H       1  ZINC000410354665    0.1300
     42 H42       -11.1045   -3.2177   59.3708 H       1  ZINC000410354665    0.1400
     43 H43        -9.0585   -0.4626   55.5128 H       1  ZINC000410354665    0.1300
     44 H44        -8.0527    1.2059   54.0154 H       1  ZINC000410354665    0.1400
     45 H45        -6.4968    2.1086   53.0442 H       1  ZINC000410354665    0.0800
     46 H46        -8.8912    2.3284   53.2023 H       1  ZINC000410354665    0.0700
     47 H47        -8.7843    4.0601   53.6607 H       1  ZINC000410354665    0.0800
     48 H48        -8.2296    2.7746   50.9303 H       1  ZINC000410354665    0.0700
     49 H49        -9.2449    4.2041   51.2981 H       1  ZINC000410354665    0.0700
     50 H50        -6.6099    4.3936   50.4632 H       1  ZINC000410354665    0.0700
     51 H51        -7.3995    5.6184   51.4965 H       1  ZINC000410354665    0.0700
     52 H52        -5.9921    5.0768   53.2139 H       1  ZINC000410354665    0.0800
     53 H53        -5.2025    3.8521   52.1806 H       1  ZINC000410354665    0.0700
@<TRIPOS>BOND
     1     1     2    1
     2     1    30    1
     3     1    31    1
     4     1    32    1
     5     2     3    1
     6     3    23   ar
     7     3     4   ar
     8     4     5   ar
     9     4    33    1
    10     5     6    1
    11     5    21   ar
    12     6     7    2
    13     6     8   am
    14     8     9    1
    15     8    34    1
    16     9    10    1
    17     9    35    1
    18     9    36    1
    19    10    20   ar
    20    10    11   ar
    21    11    12   ar
    22    11    37    1
    23    12    13    1
    24    12    14   ar
    25    14    19   ar
    26    14    15    1
    27    15    16    1
    28    16    17    1
    29    16    38    1
    30    16    39    1
    31    17    18    1
    32    17    40    1
    33    17    41    1
    34    18    19    1
    35    19    20   ar
    36    20    42    1
    37    21    22   ar
    38    21    43    1
    39    22    23   ar
    40    22    44    1
    41    23    24    1
    42    24    25    1
    43    25    29    1
    44    25    26    1
    45    25    45    1
    46    26    27    1
    47    26    46    1
    48    26    47    1
    49    27    28    1
    50    27    48    1
    51    27    49    1
    52    28    29    1
    53    28    50    1
    54    28    51    1
    55    29    52    1
    56    29    53    1
@<TRIPOS>SUBSTRUCTURE
     1 ZINC000410354665        1 TEMP              0 ****  ****    0 ROOT


##########                                Name:    ZINC001119787528
##########                DOCK_Rotatable_Bonds:                   6
##########                         Heavy_Atoms:                  27
##########                    Molecular_Weight:             362.434
##########                DOCK_Rotatable_Bonds:                   6
##########                       Formal_Charge:          -0.0199998
##########                     HBond_Acceptors:                   7
##########                        HBond_Donors:                   1
##########                         Heavy_Atoms:                  27
##########                          Grid_Score:          -31.433834
##########                     Grid_vdw_energy:          -31.814774
##########                      Grid_es_energy:            0.380940
##########           Internal_energy_repulsive:           11.038165

@<TRIPOS>MOLECULE
ZINC001119787528
 49 52 1 0 0
SMALL
USER_CHARGES


@<TRIPOS>ATOM
      1 C1        -15.4282   -1.7547   59.9586 C.3     1  ZINC001119787528   -0.1700
      2 C2        -14.4922   -2.9488   60.1559 C.3     1  ZINC001119787528    0.1000
      3 N3        -13.8507   -3.2821   58.8816 N.pl3   1  ZINC001119787528   -0.4500
      4 C4        -14.2930   -4.1772   57.9685 C.2     1  ZINC001119787528    0.1800
      5 N5        -13.4562   -4.2017   56.9639 N.2     1  ZINC001119787528   -0.4800
      6 C6        -12.4671   -3.3367   57.1983 C.2     1  ZINC001119787528   -0.0200
      7 C7        -12.6995   -2.7453   58.3898 C.2     1  ZINC001119787528   -0.0100
      8 C8        -11.8188   -1.6962   59.0162 C.3     1  ZINC001119787528   -0.0600
      9 C9        -10.4422   -1.7382   58.3402 C.3     1  ZINC001119787528    0.1400
     10 N10       -10.6239   -1.8267   56.8836 N.am    1  ZINC001119787528   -0.6200
     11 C11       -10.2093   -0.8316   56.0747 C.2     1  ZINC001119787528    0.7200
     12 O12        -9.6774    0.1541   56.5472 O.2     1  ZINC001119787528   -0.5600
     13 N13       -10.3839   -0.9296   54.7418 N.am    1  ZINC001119787528   -0.6600
     14 C14        -9.9563    0.0966   53.9075 C.ar    1  ZINC001119787528    0.4200
     15 C15       -10.8451    1.0878   53.4906 C.ar    1  ZINC001119787528   -0.2500
     16 C16       -10.3715    2.0872   52.6617 C.ar    1  ZINC001119787528    0.1600
     17 N17        -9.0990    2.0718   52.2928 N.ar    1  ZINC001119787528   -0.5300
     18 C18        -8.2846    1.1208   52.7043 C.ar    1  ZINC001119787528    0.3500
     19 C19        -6.8452    1.1454   52.2586 C.3     1  ZINC001119787528   -0.0100
     20 C20        -6.0635    2.0879   53.1371 C.ar    1  ZINC001119787528   -0.0800
     21 C21        -4.9716    2.7640   52.6257 C.ar    1  ZINC001119787528   -0.1000
     22 C22        -4.2545    3.6285   53.4314 C.ar    1  ZINC001119787528   -0.1200
     23 C23        -4.6295    3.8173   54.7485 C.ar    1  ZINC001119787528   -0.1200
     24 C24        -5.7220    3.1419   55.2596 C.ar    1  ZINC001119787528   -0.1200
     25 C25        -6.4417    2.2806   54.4526 C.ar    1  ZINC001119787528   -0.1000
     26 N26        -8.6926    0.1523   53.4987 N.ar    1  ZINC001119787528   -0.5500
     27 C27       -11.2728   -3.0266   56.3273 C.3     1  ZINC001119787528    0.2000
     28 H28       -15.9056   -1.5066   60.9066 H       1  ZINC001119787528    0.0800
     29 H29       -14.8544   -0.8977   59.6055 H       1  ZINC001119787528    0.0600
     30 H30       -16.1914   -2.0088   59.2231 H       1  ZINC001119787528    0.0600
     31 H31       -13.7290   -2.6946   60.8914 H       1  ZINC001119787528    0.0900
     32 H32       -15.0661   -3.8057   60.5089 H       1  ZINC001119787528    0.1000
     33 H33       -15.1893   -4.7735   58.0551 H       1  ZINC001119787528    0.2100
     34 H34       -12.2655   -0.7121   58.8746 H       1  ZINC001119787528    0.0800
     35 H35       -11.7090   -1.8999   60.0813 H       1  ZINC001119787528    0.0900
     36 H36        -9.8887   -0.8314   58.5839 H       1  ZINC001119787528    0.1100
     37 H37        -9.8898   -2.6094   58.6920 H       1  ZINC001119787528    0.0800
     38 H38       -10.8083   -1.7162   54.3649 H       1  ZINC001119787528    0.4200
     39 H39       -11.8775    1.0742   53.8073 H       1  ZINC001119787528    0.1800
     40 H40       -11.0307    2.8709   52.3186 H       1  ZINC001119787528    0.1700
     41 H41        -6.4237    0.1431   52.3358 H       1  ZINC001119787528    0.1000
     42 H42        -6.7909    1.4838   51.2240 H       1  ZINC001119787528    0.1000
     43 H43        -4.6785    2.6165   51.5967 H       1  ZINC001119787528    0.1300
     44 H44        -3.4009    4.1562   53.0322 H       1  ZINC001119787528    0.1200
     45 H45        -4.0689    4.4922   55.3782 H       1  ZINC001119787528    0.1200
     46 H46        -6.0148    3.2891   56.2887 H       1  ZINC001119787528    0.1200
     47 H47        -7.2951    1.7530   54.8520 H       1  ZINC001119787528    0.1200
     48 H48       -10.5782   -3.8665   56.3466 H       1  ZINC001119787528    0.0900
     49 H49       -11.5944   -2.8336   55.3040 H       1  ZINC001119787528    0.0900
@<TRIPOS>BOND
     1     1     2    1
     2     1    28    1
     3     1    29    1
     4     1    30    1
     5     2     3    1
     6     2    31    1
     7     2    32    1
     8     3     7    1
     9     3     4    1
    10     4     5    2
    11     4    33    1
    12     5     6    1
    13     6    27    1
    14     6     7    2
    15     7     8    1
    16     8     9    1
    17     8    34    1
    18     8    35    1
    19     9    10    1
    20     9    36    1
    21     9    37    1
    22    10    11   am
    23    10    27    1
    24    11    12    2
    25    11    13   am
    26    13    14    1
    27    13    38    1
    28    14    26   ar
    29    14    15   ar
    30    15    16   ar
    31    15    39    1
    32    16    17   ar
    33    16    40    1
    34    17    18   ar
    35    18    19    1
    36    18    26   ar
    37    19    20    1
    38    19    41    1
    39    19    42    1
    40    20    25   ar
    41    20    21   ar
    42    21    22   ar
    43    21    43    1
    44    22    23   ar
    45    22    44    1
    46    23    24   ar
    47    23    45    1
    48    24    25   ar
    49    24    46    1
    50    25    47    1
    51    27    48    1
    52    27    49    1
@<TRIPOS>SUBSTRUCTURE
     1 ZINC001119787528        1 TEMP              0 ****  ****    0 ROOT


##########                                Name:    ZINC001291841503
##########                DOCK_Rotatable_Bonds:                   7
##########                         Heavy_Atoms:                  28
##########                    Molecular_Weight:             397.544
##########                DOCK_Rotatable_Bonds:                   7
##########                       Formal_Charge:         -0.00999964
##########                     HBond_Acceptors:                   7
##########                        HBond_Donors:                   0
##########                         Heavy_Atoms:                  28
##########                          Grid_Score:          -31.389982
##########                     Grid_vdw_energy:          -30.395063
##########                      Grid_es_energy:           -0.994919
##########           Internal_energy_repulsive:           27.761646

@<TRIPOS>MOLECULE
ZINC001291841503
 55 58 1 0 0
SMALL
USER_CHARGES


@<TRIPOS>ATOM
      1 C1         -9.0050    1.7079   52.9110 C.3     1  ZINC001291841503   -0.1500
      2 C2         -8.4002    0.3195   53.1292 C.3     1  ZINC001291841503   -0.1100
      3 C3         -9.3980   -0.5581   53.8875 C.3     1  ZINC001291841503    0.0500
      4 H4         -9.2257   -1.6047   53.6361 H       1  ZINC001291841503    0.0900
      5 C5         -9.2148   -0.3610   55.3703 C.2     1  ZINC001291841503    0.2000
      6 N6         -8.6711    0.6712   55.9506 N.2     1  ZINC001291841503   -0.2700
      7 N7         -8.6756    0.5127   57.2261 N.2     1  ZINC001291841503   -0.3100
      8 C8         -9.2271   -0.6384   57.5304 C.2     1  ZINC001291841503    0.3600
      9 N9         -9.4083   -1.1541   58.8039 N.3     1  ZINC001291841503   -0.4500
     10 C10        -8.3077   -2.0563   59.1681 C.3     1  ZINC001291841503    0.0200
     11 C11        -9.5551   -0.0771   59.7920 C.3     1  ZINC001291841503    0.0700
     12 H12        -8.6703    0.5594   59.8038 H       1  ZINC001291841503    0.0800
     13 C13       -10.8337    0.7591   59.5123 C.3     1  ZINC001291841503   -0.1400
     14 C14       -11.1712    1.2658   60.9372 C.3     1  ZINC001291841503    0.0500
     15 O15       -10.8292    0.1794   61.8125 O.3     1  ZINC001291841503   -0.3800
     16 C16        -9.8357   -0.6541   61.1962 C.3     1  ZINC001291841503    0.0600
     17 N17        -9.5936   -1.2293   56.3563 N.pl3   1  ZINC001291841503   -0.4700
     18 C18       -10.2484   -2.5288   56.1867 C.3     1  ZINC001291841503    0.1900
     19 C19       -11.6642   -2.4484   56.6967 C.2     1  ZINC001291841503   -0.2700
     20 C20       -12.4027   -1.3390   56.7947 C.2     1  ZINC001291841503    0.0800
     21 N21       -13.6158   -1.5304   57.2728 N.2     1  ZINC001291841503   -0.4800
     22 C22       -13.9415   -2.7396   57.5835 C.2     1  ZINC001291841503    0.0500
     23 C23       -15.2775   -3.1564   58.1425 C.3     1  ZINC001291841503   -0.0800
     24 S24       -12.6407   -3.8016   57.2622 S.3     1  ZINC001291841503    0.1800
     25 C25       -10.8021   -0.1729   53.4992 C.ar    1  ZINC001291841503   -0.0900
     26 C26       -11.4316   -0.8191   52.4518 C.ar    1  ZINC001291841503   -0.0900
     27 C27       -12.7196   -0.4657   52.0956 C.ar    1  ZINC001291841503   -0.1200
     28 C28       -13.3785    0.5335   52.7871 C.ar    1  ZINC001291841503   -0.1200
     29 C29       -12.7495    1.1791   53.8352 C.ar    1  ZINC001291841503   -0.1200
     30 C30       -11.4629    0.8228   54.1941 C.ar    1  ZINC001291841503   -0.1100
     31 H31        -9.9232    1.6170   52.3307 H       1  ZINC001291841503    0.0500
     32 H32        -9.2287    2.1625   53.8760 H       1  ZINC001291841503    0.0500
     33 H33        -8.2941    2.3331   52.3708 H       1  ZINC001291841503    0.0600
     34 H34        -8.1766   -0.1352   52.1642 H       1  ZINC001291841503    0.0800
     35 H35        -7.4820    0.4104   53.7095 H       1  ZINC001291841503    0.0800
     36 H36        -7.3795   -1.4886   59.2348 H       1  ZINC001291841503    0.0500
     37 H37        -8.5208   -2.5188   60.1318 H       1  ZINC001291841503    0.0900
     38 H38        -8.2060   -2.8308   58.4080 H       1  ZINC001291841503    0.0700
     39 H39       -10.6205    1.5901   58.8400 H       1  ZINC001291841503    0.0900
     40 H40       -11.6342    0.1329   59.1183 H       1  ZINC001291841503    0.0800
     41 H41       -10.5751    2.1465   61.1765 H       1  ZINC001291841503    0.0700
     42 H42       -12.2340    1.4947   61.0155 H       1  ZINC001291841503    0.0900
     43 H43       -10.2122   -1.6731   61.1058 H       1  ZINC001291841503    0.0800
     44 H44        -8.9243   -0.6471   61.7940 H       1  ZINC001291841503    0.0700
     45 H45       -10.2575   -2.7959   55.1300 H       1  ZINC001291841503    0.1100
     46 H46        -9.7024   -3.2868   56.7483 H       1  ZINC001291841503    0.1100
     47 H47       -12.0356   -0.3653   56.5057 H       1  ZINC001291841503    0.1700
     48 H48       -15.9519   -3.4068   57.3236 H       1  ZINC001291841503    0.0900
     49 H49       -15.1470   -4.0274   58.7848 H       1  ZINC001291841503    0.0800
     50 H50       -15.7001   -2.3367   58.7235 H       1  ZINC001291841503    0.0900
     51 H51       -10.9168   -1.5998   51.9115 H       1  ZINC001291841503    0.1300
     52 H52       -13.2111   -0.9702   51.2768 H       1  ZINC001291841503    0.1200
     53 H53       -14.3846    0.8101   52.5084 H       1  ZINC001291841503    0.1200
     54 H54       -13.2642    1.9600   54.3753 H       1  ZINC001291841503    0.1200
     55 H55       -10.9715    1.3272   55.0130 H       1  ZINC001291841503    0.1200
@<TRIPOS>BOND
     1     1     2    1
     2     1    31    1
     3     1    32    1
     4     1    33    1
     5     2     3    1
     6     2    34    1
     7     2    35    1
     8     3     4    1
     9     3     5    1
    10     3    25    1
    11     5    17    1
    12     5     6    2
    13     6     7    1
    14     7     8    2
    15     8     9    1
    16     8    17    1
    17     9    10    1
    18     9    11    1
    19    10    36    1
    20    10    37    1
    21    10    38    1
    22    11    12    1
    23    11    16    1
    24    11    13    1
    25    13    14    1
    26    13    39    1
    27    13    40    1
    28    14    15    1
    29    14    41    1
    30    14    42    1
    31    15    16    1
    32    16    43    1
    33    16    44    1
    34    17    18    1
    35    18    19    1
    36    18    45    1
    37    18    46    1
    38    19    24    1
    39    19    20    2
    40    20    21    1
    41    20    47    1
    42    21    22    2
    43    22    23    1
    44    22    24    1
    45    23    48    1
    46    23    49    1
    47    23    50    1
    48    25    30   ar
    49    25    26   ar
    50    26    27   ar
    51    26    51    1
    52    27    28   ar
    53    27    52    1
    54    28    29   ar
    55    28    53    1
    56    29    30   ar
    57    29    54    1
    58    30    55    1
@<TRIPOS>SUBSTRUCTURE
     1 ZINC001291841503        1 TEMP              0 ****  ****    0 ROOT


##########                                Name:    ZINC000074782190
##########                DOCK_Rotatable_Bonds:                   9
##########                         Heavy_Atoms:                  25
##########                    Molecular_Weight:             341.453
##########                DOCK_Rotatable_Bonds:                   9
##########                       Formal_Charge:          -0.0200006
##########                     HBond_Acceptors:                   5
##########                        HBond_Donors:                   1
##########                         Heavy_Atoms:                  25
##########                          Grid_Score:          -31.389624
##########                     Grid_vdw_energy:          -31.873987
##########                      Grid_es_energy:            0.484363
##########           Internal_energy_repulsive:           26.900993

@<TRIPOS>MOLECULE
ZINC000074782190
 52 53 1 0 0
SMALL
USER_CHARGES


@<TRIPOS>ATOM
      1 C1         -6.9152    2.4470   55.5638 C.3     1  ZINC000074782190   -0.1100
      2 C2         -6.4887    2.2883   54.1272 C.ar    1  ZINC000074782190   -0.1200
      3 C3         -5.5496    3.1447   53.5863 C.ar    1  ZINC000074782190   -0.0800
      4 C4         -5.1582    2.9999   52.2679 C.ar    1  ZINC000074782190   -0.1500
      5 C5         -5.7051    1.9979   51.4882 C.ar    1  ZINC000074782190   -0.0900
      6 C6         -6.6443    1.1384   52.0246 C.ar    1  ZINC000074782190   -0.2100
      7 C7         -7.0348    1.2782   53.3483 C.ar    1  ZINC000074782190    0.1300
      8 O8         -7.9587    0.4340   53.8783 O.3     1  ZINC000074782190   -0.3000
      9 C9         -9.2325    0.3788   53.2332 C.3     1  ZINC000074782190    0.0700
     10 H10        -9.0928    0.1920   52.1684 H       1  ZINC000074782190    0.0800
     11 C11        -9.9601    1.7107   53.4262 C.3     1  ZINC000074782190   -0.1800
     12 C12       -10.0649   -0.7503   53.8440 C.3     1  ZINC000074782190    0.1400
     13 N13       -10.0624   -0.6245   55.3035 N.am    1  ZINC000074782190   -0.7500
     14 C14       -10.3195   -1.7006   56.0732 C.2     1  ZINC000074782190    0.7100
     15 O15       -10.5537   -2.7758   55.5562 O.2     1  ZINC000074782190   -0.5900
     16 N16       -10.3172   -1.5847   57.4159 N.am    1  ZINC000074782190   -0.6200
     17 C17       -10.5968   -2.7544   58.2526 C.3     1  ZINC000074782190    0.1800
     18 C18       -12.0771   -3.0362   58.2437 C.ar    1  ZINC000074782190   -0.1600
     19 C19       -12.8911   -2.5462   59.2531 C.ar    1  ZINC000074782190   -0.0500
     20 C20       -14.2476   -2.8300   59.2036 C.ar    1  ZINC000074782190   -0.1800
     21 C21       -14.7394   -3.5865   58.1570 C.ar    1  ZINC000074782190    0.1000
     22 N22       -13.9351   -4.0364   57.2136 N.ar    1  ZINC000074782190   -0.4900
     23 C23       -12.6416   -3.7817   57.2256 C.ar    1  ZINC000074782190    0.1100
     24 C24       -10.0351   -0.2891   58.0390 C.3     1  ZINC000074782190    0.1300
     25 C25       -11.0760   -0.0077   59.1244 C.3     1  ZINC000074782190   -0.1800
     26 C26        -8.6397   -0.3176   58.6657 C.3     1  ZINC000074782190   -0.1800
     27 H27        -6.2645    1.8513   56.2040 H       1  ZINC000074782190    0.0700
     28 H28        -6.8447    3.4965   55.8500 H       1  ZINC000074782190    0.0600
     29 H29        -7.9450    2.1081   55.6767 H       1  ZINC000074782190    0.0700
     30 H30        -5.1210    3.9282   54.1935 H       1  ZINC000074782190    0.1300
     31 H31        -4.4243    3.6710   51.8467 H       1  ZINC000074782190    0.1200
     32 H32        -5.3979    1.8871   50.4587 H       1  ZINC000074782190    0.1200
     33 H33        -7.0716    0.3560   51.4149 H       1  ZINC000074782190    0.1300
     34 H34       -10.0999    1.8975   54.4909 H       1  ZINC000074782190    0.0700
     35 H35        -9.3671    2.5151   52.9909 H       1  ZINC000074782190    0.0700
     36 H36       -10.9318    1.6685   52.9341 H       1  ZINC000074782190    0.0800
     37 H37       -11.0888   -0.6870   53.4757 H       1  ZINC000074782190    0.0800
     38 H38        -9.6360   -1.7118   53.5614 H       1  ZINC000074782190    0.0900
     39 H39        -9.8755    0.2334   55.7160 H       1  ZINC000074782190    0.4100
     40 H40       -10.0601   -3.6182   57.8604 H       1  ZINC000074782190    0.0900
     41 H41       -10.2707   -2.5570   59.2738 H       1  ZINC000074782190    0.1000
     42 H42       -12.4785   -1.9576   60.0592 H       1  ZINC000074782190    0.1400
     43 H43       -14.9110   -2.4647   59.9735 H       1  ZINC000074782190    0.1300
     44 H44       -15.7945   -3.8123   58.1115 H       1  ZINC000074782190    0.1600
     45 H45       -12.0142   -4.1673   56.4354 H       1  ZINC000074782190    0.1500
     46 H46       -10.0778    0.4946   57.2826 H       1  ZINC000074782190    0.1000
     47 H47       -10.9728   -0.7398   59.9253 H       1  ZINC000074782190    0.0600
     48 H48       -10.9211    0.9939   59.5255 H       1  ZINC000074782190    0.0700
     49 H49       -12.0758   -0.0767   58.6956 H       1  ZINC000074782190    0.0600
     50 H50        -7.8898   -0.4028   57.8792 H       1  ZINC000074782190    0.0700
     51 H51        -8.4747    0.6020   59.2271 H       1  ZINC000074782190    0.0700
     52 H52        -8.5605   -1.1725   59.3374 H       1  ZINC000074782190    0.0700
@<TRIPOS>BOND
     1     1     2    1
     2     1    27    1
     3     1    28    1
     4     1    29    1
     5     2     7   ar
     6     2     3   ar
     7     3     4   ar
     8     3    30    1
     9     4     5   ar
    10     4    31    1
    11     5     6   ar
    12     5    32    1
    13     6     7   ar
    14     6    33    1
    15     7     8    1
    16     8     9    1
    17     9    10    1
    18     9    11    1
    19     9    12    1
    20    11    34    1
    21    11    35    1
    22    11    36    1
    23    12    13    1
    24    12    37    1
    25    12    38    1
    26    13    14   am
    27    13    39    1
    28    14    15    2
    29    14    16   am
    30    16    17    1
    31    16    24    1
    32    17    18    1
    33    17    40    1
    34    17    41    1
    35    18    23   ar
    36    18    19   ar
    37    19    20   ar
    38    19    42    1
    39    20    21   ar
    40    20    43    1
    41    21    22   ar
    42    21    44    1
    43    22    23   ar
    44    23    45    1
    45    24    25    1
    46    24    26    1
    47    24    46    1
    48    25    47    1
    49    25    48    1
    50    25    49    1
    51    26    50    1
    52    26    51    1
    53    26    52    1
@<TRIPOS>SUBSTRUCTURE
     1 ZINC000074782190        1 TEMP              0 ****  ****    0 ROOT


##########                                Name:    ZINC000751548479
##########                DOCK_Rotatable_Bonds:                   9
##########                         Heavy_Atoms:                  27
##########                    Molecular_Weight:             389.407
##########                DOCK_Rotatable_Bonds:                   9
##########                       Formal_Charge:           0.0199995
##########                     HBond_Acceptors:                   9
##########                        HBond_Donors:                   2
##########                         Heavy_Atoms:                  27
##########                          Grid_Score:          -31.341095
##########                     Grid_vdw_energy:          -29.576056
##########                      Grid_es_energy:           -1.765040
##########           Internal_energy_repulsive:           12.228476

@<TRIPOS>MOLECULE
ZINC000751548479
 43 44 1 0 0
SMALL
USER_CHARGES


@<TRIPOS>ATOM
      1 C1         -4.4772    3.5206   53.4921 C.3     1  ZINC000751548479   -0.1600
      2 C2         -4.4696    2.6200   52.2551 C.3     1  ZINC000751548479    0.0800
      3 O3         -5.7103    2.7950   51.5215 O.3     1  ZINC000751548479   -0.3600
      4 C4         -6.7976    2.1602   51.9991 C.2     1  ZINC000751548479    0.6500
      5 O5         -7.8965    2.4132   51.5464 O.2     1  ZINC000751548479   -0.5400
      6 N6         -6.6669    1.2444   52.9791 N.am    1  ZINC000751548479   -0.6500
      7 C7         -7.7944    0.5861   53.4745 C.ar    1  ZINC000751548479    0.2000
      8 C8         -8.4519   -0.3519   52.6918 C.ar    1  ZINC000751548479   -0.1000
      9 C9         -9.5667   -1.0036   53.1800 C.ar    1  ZINC000751548479   -0.1000
     10 C10       -10.0392   -0.7259   54.4582 C.ar    1  ZINC000751548479    0.1300
     11 N11       -11.1703   -1.3914   54.9440 N.am    1  ZINC000751548479   -1.0500
     12 S12       -11.0065   -2.5700   56.0957 S.o2    1  ZINC000751548479    2.6800
     13 O13       -12.3231   -2.9372   56.4841 O.2     1  ZINC000751548479   -0.9500
     14 O14       -10.0586   -3.4986   55.5877 O.2     1  ZINC000751548479   -0.9400
     15 C15       -10.2624   -1.8208   57.5064 C.2     1  ZINC000751548479   -0.7500
     16 C16       -11.0232   -1.3024   58.4603 C.2     1  ZINC000751548479    0.0700
     17 C17       -10.3991   -0.6756   59.6444 C.ar    1  ZINC000751548479   -0.1100
     18 C18        -9.1526   -1.1140   60.0935 C.ar    1  ZINC000751548479   -0.0600
     19 C19        -8.5744   -0.5253   61.1987 C.ar    1  ZINC000751548479   -0.1600
     20 C20        -9.2292    0.4994   61.8633 C.ar    1  ZINC000751548479    0.1200
     21 F21        -8.6587    1.0723   62.9455 F       1  ZINC000751548479   -0.1300
     22 C22       -10.4668    0.9388   61.4212 C.ar    1  ZINC000751548479   -0.1600
     23 C23       -11.0515    0.3606   60.3138 C.ar    1  ZINC000751548479   -0.0500
     24 C24        -9.3930    0.2073   55.2516 C.ar    1  ZINC000751548479   -0.0600
     25 C25        -8.2619    0.8672   54.7669 C.ar    1  ZINC000751548479   -0.0300
     26 C26        -7.5880    1.8330   55.5815 C.1     1  ZINC000751548479    0.2500
     27 N27        -7.0534    2.5992   56.2278 N.1     1  ZINC000751548479   -0.4000
     28 H28        -5.3183    3.2525   54.1314 H       1  ZINC000751548479    0.0700
     29 H29        -3.5459    3.3892   54.0428 H       1  ZINC000751548479    0.0900
     30 H30        -4.5729    4.5615   53.1832 H       1  ZINC000751548479    0.0700
     31 H31        -3.6284    2.8881   51.6159 H       1  ZINC000751548479    0.0800
     32 H32        -4.3738    1.5791   52.5641 H       1  ZINC000751548479    0.0800
     33 H33        -5.7897    1.0425   53.3405 H       1  ZINC000751548479    0.4200
     34 H34        -8.0909   -0.5725   51.6981 H       1  ZINC000751548479    0.1600
     35 H35       -10.0747   -1.7326   52.5660 H       1  ZINC000751548479    0.1700
     36 H36       -12.0502   -1.1625   54.6060 H       1  ZINC000751548479    0.4300
     37 H37        -9.1866   -1.7839   57.5938 H       1  ZINC000751548479    0.1700
     38 H38       -12.0990   -1.3381   58.3722 H       1  ZINC000751548479    0.1500
     39 H39        -8.6419   -1.9130   59.5767 H       1  ZINC000751548479    0.1400
     40 H40        -7.6099   -0.8639   61.5471 H       1  ZINC000751548479    0.1400
     41 H41       -10.9728    1.7380   61.9424 H       1  ZINC000751548479    0.1400
     42 H42       -12.0159    0.7040   59.9699 H       1  ZINC000751548479    0.1400
     43 H43        -9.7613    0.4218   56.2439 H       1  ZINC000751548479    0.1500
@<TRIPOS>BOND
     1     1     2    1
     2     1    28    1
     3     1    29    1
     4     1    30    1
     5     2     3    1
     6     2    31    1
     7     2    32    1
     8     3     4    1
     9     4     5    2
    10     4     6   am
    11     6     7    1
    12     6    33    1
    13     7    25   ar
    14     7     8   ar
    15     8     9   ar
    16     8    34    1
    17     9    10   ar
    18     9    35    1
    19    10    11    1
    20    10    24   ar
    21    11    12   am
    22    11    36    1
    23    12    13    2
    24    12    14    2
    25    12    15    1
    26    15    16    2
    27    15    37    1
    28    16    17    1
    29    16    38    1
    30    17    23   ar
    31    17    18   ar
    32    18    19   ar
    33    18    39    1
    34    19    20   ar
    35    19    40    1
    36    20    21    1
    37    20    22   ar
    38    22    23   ar
    39    22    41    1
    40    23    42    1
    41    24    25   ar
    42    24    43    1
    43    25    26    1
    44    26    27    3
@<TRIPOS>SUBSTRUCTURE
     1 ZINC000751548479        1 TEMP              0 ****  ****    0 ROOT


##########                                Name:    ZINC000151303733
##########                DOCK_Rotatable_Bonds:                   7
##########                         Heavy_Atoms:                  26
##########                    Molecular_Weight:             369.444
##########                DOCK_Rotatable_Bonds:                   7
##########                       Formal_Charge:        -1.93715e-07
##########                     HBond_Acceptors:                   7
##########                        HBond_Donors:                   2
##########                         Heavy_Atoms:                  26
##########                          Grid_Score:          -31.340952
##########                     Grid_vdw_energy:          -29.662880
##########                      Grid_es_energy:           -1.678073
##########           Internal_energy_repulsive:           10.301891

@<TRIPOS>MOLECULE
ZINC000151303733
 45 48 1 0 0
SMALL
USER_CHARGES


@<TRIPOS>ATOM
      1 C1         -8.9030    0.4305   66.0971 C.3     1  ZINC000151303733   -0.1000
      2 C2         -9.4083    1.7194   65.5017 C.2     1  ZINC000151303733   -0.1200
      3 C3         -9.8602    2.7267   66.2497 C.2     1  ZINC000151303733   -0.2000
      4 S4        -10.3618    4.0563   65.2135 S.3     1  ZINC000151303733    0.1200
      5 C5         -9.9177    3.1458   63.7759 C.2     1  ZINC000151303733   -0.2400
      6 C6         -9.4335    1.9507   64.1334 C.2     1  ZINC000151303733    0.1200
      7 N7         -8.9935    0.9989   63.1948 N.am    1  ZINC000151303733   -0.6400
      8 C8         -9.7755    0.6753   62.1459 C.2     1  ZINC000151303733    0.5100
      9 O9        -10.8587    1.2046   62.0108 O.2     1  ZINC000151303733   -0.5100
     10 C10        -9.3042   -0.3439   61.1408 C.3     1  ZINC000151303733    0.1000
     11 N11       -10.1903   -0.3253   59.9743 N.am    1  ZINC000151303733   -0.7100
     12 C12       -11.1300   -1.2801   59.8265 C.2     1  ZINC000151303733    0.5200
     13 O13       -11.2410   -2.1555   60.6585 O.2     1  ZINC000151303733   -0.5100
     14 C14       -12.0426   -1.2599   58.6275 C.3     1  ZINC000151303733    0.1600
     15 H15       -12.1518   -0.2405   58.2575 H       1  ZINC000151303733    0.1300
     16 C16       -13.3919   -1.8258   58.9936 C.ar    1  ZINC000151303733   -0.0900
     17 C17       -14.3545   -1.4539   59.9028 C.ar    1  ZINC000151303733   -0.0900
     18 C18       -15.5223   -2.1904   60.0142 C.ar    1  ZINC000151303733   -0.0800
     19 C19       -15.7238   -3.3001   59.2130 C.ar    1  ZINC000151303733   -0.1200
     20 C20       -14.7645   -3.6819   58.2977 C.ar    1  ZINC000151303733   -0.0400
     21 C21       -13.5851   -2.9447   58.1796 C.ar    1  ZINC000151303733   -0.1500
     22 C22       -12.3997   -3.0977   57.3146 C.2     1  ZINC000151303733    0.5600
     23 O23       -12.2515   -3.9767   56.4883 O.2     1  ZINC000151303733   -0.5100
     24 N24       -11.5061   -2.1251   57.5708 N.am    1  ZINC000151303733   -0.5700
     25 C25       -10.2118   -1.9585   56.9049 C.3     1  ZINC000151303733    0.0900
     26 C26       -10.2160   -1.3865   55.4858 C.3     1  ZINC000151303733   -0.1800
     27 C27        -9.7249   -0.5299   56.6544 C.3     1  ZINC000151303733   -0.1900
     28 H28        -7.8334    0.5141   66.2899 H       1  ZINC000151303733    0.0700
     29 H29        -9.4263    0.2326   67.0325 H       1  ZINC000151303733    0.0700
     30 H30        -9.0836   -0.3874   65.3996 H       1  ZINC000151303733    0.0600
     31 H31        -9.9111    2.7260   67.3285 H       1  ZINC000151303733    0.1700
     32 H32       -10.0166    3.4990   62.7601 H       1  ZINC000151303733    0.2000
     33 H33        -8.1275    0.5756   63.3029 H       1  ZINC000151303733    0.4200
     34 H34        -8.2879   -0.1036   60.8289 H       1  ZINC000151303733    0.1100
     35 H35        -9.3205   -1.3352   61.5937 H       1  ZINC000151303733    0.1100
     36 H36       -10.1007    0.3742   59.3083 H       1  ZINC000151303733    0.4100
     37 H37       -14.1999   -0.5882   60.5298 H       1  ZINC000151303733    0.1300
     38 H38       -16.2774   -1.8978   60.7287 H       1  ZINC000151303733    0.1400
     39 H39       -16.6363   -3.8706   59.3048 H       1  ZINC000151303733    0.1400
     40 H40       -14.9259   -4.5487   57.6739 H       1  ZINC000151303733    0.1400
     41 H41        -9.4607   -2.7120   57.1419 H       1  ZINC000151303733    0.1400
     42 H42        -9.4675   -1.7638   54.7889 H       1  ZINC000151303733    0.1000
     43 H43       -11.1816   -1.1343   55.0477 H       1  ZINC000151303733    0.1300
     44 H44       -10.3674    0.2861   56.9852 H       1  ZINC000151303733    0.1000
     45 H45        -8.6534   -0.3435   56.7265 H       1  ZINC000151303733    0.1000
@<TRIPOS>BOND
     1     1     2    1
     2     1    28    1
     3     1    29    1
     4     1    30    1
     5     2     6    1
     6     2     3    2
     7     3     4    1
     8     3    31    1
     9     4     5    1
    10     5     6    2
    11     5    32    1
    12     6     7    1
    13     7     8   am
    14     7    33    1
    15     8     9    2
    16     8    10    1
    17    10    11    1
    18    10    34    1
    19    10    35    1
    20    11    12   am
    21    11    36    1
    22    12    13    2
    23    12    14    1
    24    14    15    1
    25    14    24    1
    26    14    16    1
    27    16    21   ar
    28    16    17   ar
    29    17    18   ar
    30    17    37    1
    31    18    19   ar
    32    18    38    1
    33    19    20   ar
    34    19    39    1
    35    20    21   ar
    36    20    40    1
    37    21    22    1
    38    22    23    2
    39    22    24   am
    40    24    25    1
    41    25    27    1
    42    25    26    1
    43    25    41    1
    44    26    27    1
    45    26    42    1
    46    26    43    1
    47    27    44    1
    48    27    45    1
@<TRIPOS>SUBSTRUCTURE
     1 ZINC000151303733        1 TEMP              0 ****  ****    0 ROOT


##########                                Name:    ZINC000848949366
##########                DOCK_Rotatable_Bonds:                   8
##########                         Heavy_Atoms:                  25
##########                    Molecular_Weight:             368.773
##########                DOCK_Rotatable_Bonds:                   8
##########                       Formal_Charge:          0.00999947
##########                     HBond_Acceptors:                   9
##########                        HBond_Donors:                   3
##########                         Heavy_Atoms:                  25
##########                          Grid_Score:          -31.325199
##########                     Grid_vdw_energy:          -29.484394
##########                      Grid_es_energy:           -1.840806
##########           Internal_energy_repulsive:            9.947170

@<TRIPOS>MOLECULE
ZINC000848949366
 42 43 1 0 0
SMALL
USER_CHARGES


@<TRIPOS>ATOM
      1 C1         -5.5810    3.5129   58.1325 C.3     1  ZINC000848949366   -0.1500
      2 C2         -6.4014    2.7099   57.1210 C.3     1  ZINC000848949366    0.0600
      3 O3         -6.7698    1.4547   57.6960 O.3     1  ZINC000848949366   -0.3500
      4 C4         -8.0473    1.3220   58.1103 C.2     1  ZINC000848949366    0.5400
      5 O5         -8.7266    2.3108   58.3140 O.2     1  ZINC000848949366   -0.4800
      6 C6         -8.5966    0.0335   58.3079 C.2     1  ZINC000848949366   -0.2300
      7 C7         -9.3907   -0.5371   57.3765 C.2     1  ZINC000848949366    0.2000
      8 C8         -9.6970    0.2108   56.1045 C.3     1  ZINC000848949366    0.1000
      9 O9        -10.7582   -0.4712   55.3855 O.3     1  ZINC000848949366   -0.3500
     10 C10       -10.9322   -0.1385   54.0913 C.2     1  ZINC000848949366    0.5100
     11 O11       -12.0220   -0.2720   53.5707 O.2     1  ZINC000848949366   -0.4800
     12 C12        -9.8007    0.3873   53.3074 C.ar    1  ZINC000848949366   -0.1600
     13 C13        -9.5473    1.7614   53.2740 C.ar    1  ZINC000848949366   -0.0300
     14 C14        -8.4881    2.2468   52.5393 C.ar    1  ZINC000848949366   -0.1300
     15 C15        -7.6711    1.3781   51.8315 C.ar    1  ZINC000848949366    0.0200
     16 Cl16       -6.3400    2.0036   50.9093 Cl      1  ZINC000848949366   -0.0500
     17 C17        -7.9104    0.0168   51.8565 C.ar    1  ZINC000848949366   -0.1500
     18 C18        -8.9685   -0.4891   52.5953 C.ar    1  ZINC000848949366    0.1900
     19 O19        -9.2047   -1.8245   52.6208 O.3     1  ZINC000848949366   -0.4700
     20 N20        -9.9200   -1.7813   57.5682 N.am    1  ZINC000848949366   -0.6400
     21 C21        -9.7036   -2.5195   58.6641 C.2     1  ZINC000848949366    0.7100
     22 O22       -10.2188   -3.6176   58.7445 O.2     1  ZINC000848949366   -0.5600
     23 N23        -8.9329   -2.0850   59.6808 N.am    1  ZINC000848949366   -0.7100
     24 C24        -8.3092   -0.7557   59.5689 C.3     1  ZINC000848949366    0.2000
     25 H25        -7.2301   -0.8826   59.6556 H       1  ZINC000848949366    0.0900
     26 C26        -8.7778    0.0866   60.7571 C.3     1  ZINC000848949366   -0.1700
     27 H27        -5.3000    4.4705   57.6939 H       1  ZINC000848949366    0.0800
     28 H28        -6.1768    3.6847   59.0289 H       1  ZINC000848949366    0.0700
     29 H29        -4.6817    2.9557   58.3950 H       1  ZINC000848949366    0.0700
     30 H30        -7.3007    3.2672   56.8585 H       1  ZINC000848949366    0.0700
     31 H31        -5.8057    2.5381   56.2245 H       1  ZINC000848949366    0.0700
     32 H32       -10.0158    1.2246   56.3470 H       1  ZINC000848949366    0.1100
     33 H33        -8.8033    0.2501   55.4819 H       1  ZINC000848949366    0.1000
     34 H34       -10.1814    2.4416   53.8231 H       1  ZINC000848949366    0.1500
     35 H35        -8.2933    3.3088   52.5141 H       1  ZINC000848949366    0.1500
     36 H36        -7.2700   -0.6538   51.3028 H       1  ZINC000848949366    0.1500
     37 H37        -9.9668   -2.0790   53.1590 H       1  ZINC000848949366    0.4000
     38 H38       -10.4847   -2.1509   56.8714 H       1  ZINC000848949366    0.4300
     39 H39        -8.7898   -2.6363   60.4660 H       1  ZINC000848949366    0.4400
     40 H40        -8.4740   -0.3952   61.6864 H       1  ZINC000848949366    0.0700
     41 H41        -8.3295    1.0785   60.6986 H       1  ZINC000848949366    0.0700
     42 H42        -9.8639    0.1768   60.7327 H       1  ZINC000848949366    0.0700
@<TRIPOS>BOND
     1     1     2    1
     2     1    27    1
     3     1    28    1
     4     1    29    1
     5     2     3    1
     6     2    30    1
     7     2    31    1
     8     3     4    1
     9     4     5    2
    10     4     6    1
    11     6    24    1
    12     6     7    2
    13     7     8    1
    14     7    20    1
    15     8     9    1
    16     8    32    1
    17     8    33    1
    18     9    10    1
    19    10    11    2
    20    10    12    1
    21    12    18   ar
    22    12    13   ar
    23    13    14   ar
    24    13    34    1
    25    14    15   ar
    26    14    35    1
    27    15    16    1
    28    15    17   ar
    29    17    18   ar
    30    17    36    1
    31    18    19    1
    32    19    37    1
    33    20    21   am
    34    20    38    1
    35    21    22    2
    36    21    23   am
    37    23    24    1
    38    23    39    1
    39    24    25    1
    40    24    26    1
    41    26    40    1
    42    26    41    1
    43    26    42    1
@<TRIPOS>SUBSTRUCTURE
     1 ZINC000848949366        1 TEMP              0 ****  ****    0 ROOT


##########                                Name:    ZINC001347442583
##########                DOCK_Rotatable_Bonds:                   9
##########                         Heavy_Atoms:                  27
##########                    Molecular_Weight:             370.492
##########                DOCK_Rotatable_Bonds:                   9
##########                       Formal_Charge:          -0.0400009
##########                     HBond_Acceptors:                   5
##########                        HBond_Donors:                   1
##########                         Heavy_Atoms:                  27
##########                          Grid_Score:          -31.324514
##########                     Grid_vdw_energy:          -30.895010
##########                      Grid_es_energy:           -0.429505
##########           Internal_energy_repulsive:           15.765364

@<TRIPOS>MOLECULE
ZINC001347442583
 57 60 1 0 0
SMALL
USER_CHARGES


@<TRIPOS>ATOM
      1 O1         -8.4026   -1.6096   59.0732 O.2     1  ZINC001347442583   -0.5400
      2 C2         -8.5918   -0.4117   59.0761 C.2     1  ZINC001347442583    0.5400
      3 C3         -8.0021    0.4469   57.9869 C.3     1  ZINC001347442583   -0.1400
      4 C4         -8.8525    0.3205   56.7213 C.3     1  ZINC001347442583   -0.1000
      5 C5         -9.6940    1.5859   56.5438 C.3     1  ZINC001347442583   -0.1100
      6 C6        -10.5560    1.4529   55.2867 C.3     1  ZINC001347442583   -0.0800
      7 C7         -9.6661    1.2680   54.0847 C.ar    1  ZINC001347442583   -0.0800
      8 C8         -9.3026   -0.0038   53.6828 C.ar    1  ZINC001347442583   -0.1200
      9 C9         -8.4863   -0.1733   52.5802 C.ar    1  ZINC001347442583   -0.1200
     10 C10        -8.0339    0.9288   51.8791 C.ar    1  ZINC001347442583   -0.1300
     11 C11        -8.3982    2.2005   52.2803 C.ar    1  ZINC001347442583   -0.1200
     12 C12        -9.2181    2.3699   53.3804 C.ar    1  ZINC001347442583   -0.1200
     13 N13        -9.3340    0.1511   60.0503 N.am    1  ZINC001347442583   -0.6300
     14 C14        -9.7224    1.5831   60.2863 C.3     1  ZINC001347442583    0.1200
     15 H15        -9.3456    2.3037   59.5605 H       1  ZINC001347442583    0.1200
     16 C16        -9.2343    1.7872   61.7522 C.3     1  ZINC001347442583   -0.1300
     17 C17        -9.4421    0.3952   62.3981 C.3     1  ZINC001347442583   -0.1300
     18 C18       -10.0329   -0.4613   61.2308 C.3     1  ZINC001347442583    0.1200
     19 H19        -9.9259   -1.5406   61.3385 H       1  ZINC001347442583    0.1200
     20 C20       -11.4919    0.0549   61.0480 C.3     1  ZINC001347442583    0.1300
     21 H21       -11.9933    0.1386   62.0122 H       1  ZINC001347442583    0.1100
     22 N22       -12.2434   -0.8281   60.1523 N.am    1  ZINC001347442583   -0.7200
     23 C23       -13.5898   -0.8549   60.2061 C.2     1  ZINC001347442583    0.5300
     24 O24       -14.1794   -0.1470   60.9949 O.2     1  ZINC001347442583   -0.5300
     25 C25       -14.3626   -1.7645   59.2860 C.3     1  ZINC001347442583   -0.1500
     26 H26       -15.2055   -1.2368   58.8399 H       1  ZINC001347442583    0.1100
     27 C27       -13.4370   -2.3559   58.1881 C.3     1  ZINC001347442583   -0.1400
     28 C28       -14.1599   -3.6919   57.8823 C.3     1  ZINC001347442583    0.0500
     29 O29       -14.6642   -4.1439   59.1490 O.3     1  ZINC001347442583   -0.3800
     30 C30       -14.8391   -3.0276   60.0350 C.3     1  ZINC001347442583    0.0700
     31 C31       -11.2738    1.4618   60.3703 C.3     1  ZINC001347442583   -0.1400
     32 H32        -7.9872    1.4872   58.3122 H       1  ZINC001347442583    0.0900
     33 H33        -6.9848    0.1177   57.7754 H       1  ZINC001347442583    0.0900
     34 H34        -8.2007    0.1933   55.8569 H       1  ZINC001347442583    0.0700
     35 H35        -9.5105   -0.5439   56.8105 H       1  ZINC001347442583    0.0700
     36 H36       -10.3376    1.7192   57.4133 H       1  ZINC001347442583    0.0600
     37 H37        -9.0357    2.4488   56.4432 H       1  ZINC001347442583    0.0600
     38 H38       -11.2146    0.5903   55.3874 H       1  ZINC001347442583    0.0700
     39 H39       -11.1550    2.3547   55.1599 H       1  ZINC001347442583    0.0700
     40 H40        -9.6560   -0.8648   54.2306 H       1  ZINC001347442583    0.1200
     41 H41        -8.2016   -1.1668   52.2668 H       1  ZINC001347442583    0.1200
     42 H42        -7.3956    0.7964   51.0180 H       1  ZINC001347442583    0.1200
     43 H43        -8.0446    3.0616   51.7328 H       1  ZINC001347442583    0.1200
     44 H44        -9.5027    3.3635   53.6939 H       1  ZINC001347442583    0.1200
     45 H45        -8.1806    2.0657   61.7708 H       1  ZINC001347442583    0.0700
     46 H46        -9.8402    2.5392   62.2575 H       1  ZINC001347442583    0.0800
     47 H47        -8.4914   -0.0166   62.7370 H       1  ZINC001347442583    0.0800
     48 H48       -10.1511    0.4569   63.2236 H       1  ZINC001347442583    0.0800
     49 H49       -11.7718   -1.3933   59.5207 H       1  ZINC001347442583    0.4000
     50 H50       -13.4109   -1.7130   57.3082 H       1  ZINC001347442583    0.0900
     51 H51       -12.4329   -2.5319   58.5737 H       1  ZINC001347442583    0.0900
     52 H52       -14.9814   -3.5265   57.1851 H       1  ZINC001347442583    0.0700
     53 H53       -13.4567   -4.4177   57.4741 H       1  ZINC001347442583    0.0900
     54 H54       -14.2381   -3.1705   60.9330 H       1  ZINC001347442583    0.0700
     55 H55       -15.8909   -2.9303   60.3040 H       1  ZINC001347442583    0.0800
     56 H56       -11.6676    2.2577   61.0025 H       1  ZINC001347442583    0.0900
     57 H57       -11.7368    1.4888   59.3840 H       1  ZINC001347442583    0.0800
@<TRIPOS>BOND
     1     1     2    2
     2     2     3    1
     3     2    13   am
     4     3     4    1
     5     3    32    1
     6     3    33    1
     7     4     5    1
     8     4    34    1
     9     4    35    1
    10     5     6    1
    11     5    36    1
    12     5    37    1
    13     6     7    1
    14     6    38    1
    15     6    39    1
    16     7    12   ar
    17     7     8   ar
    18     8     9   ar
    19     8    40    1
    20     9    10   ar
    21     9    41    1
    22    10    11   ar
    23    10    42    1
    24    11    12   ar
    25    11    43    1
    26    12    44    1
    27    13    18    1
    28    13    14    1
    29    14    15    1
    30    14    31    1
    31    14    16    1
    32    16    17    1
    33    16    45    1
    34    16    46    1
    35    17    18    1
    36    17    47    1
    37    17    48    1
    38    18    19    1
    39    18    20    1
    40    20    21    1
    41    20    22    1
    42    20    31    1
    43    22    23   am
    44    22    49    1
    45    23    24    2
    46    23    25    1
    47    25    26    1
    48    25    30    1
    49    25    27    1
    50    27    28    1
    51    27    50    1
    52    27    51    1
    53    28    29    1
    54    28    52    1
    55    28    53    1
    56    29    30    1
    57    30    54    1
    58    30    55    1
    59    31    56    1
    60    31    57    1
@<TRIPOS>SUBSTRUCTURE
     1 ZINC001347442583        1 TEMP              0 ****  ****    0 ROOT


##########                                Name:    ZINC000599797189
##########                DOCK_Rotatable_Bonds:                  13
##########                         Heavy_Atoms:                  23
##########                    Molecular_Weight:             329.313
##########                DOCK_Rotatable_Bonds:                  13
##########                       Formal_Charge:          0.00999949
##########                     HBond_Acceptors:                  11
##########                        HBond_Donors:                   3
##########                         Heavy_Atoms:                  23
##########                          Grid_Score:          -31.260515
##########                     Grid_vdw_energy:          -25.244829
##########                      Grid_es_energy:           -6.015686
##########           Internal_energy_repulsive:            9.261517

@<TRIPOS>MOLECULE
ZINC000599797189
 42 42 1 0 0
SMALL
USER_CHARGES


@<TRIPOS>ATOM
      1 C1        -13.6520   -1.1114   58.8725 C.3     1  ZINC000599797189   -0.1500
      2 C2        -13.1119   -1.2909   57.4523 C.3     1  ZINC000599797189    0.0600
      3 O3        -12.8093    0.0095   56.8816 O.3     1  ZINC000599797189   -0.3600
      4 C4        -11.6086    0.5364   57.1683 C.2     1  ZINC000599797189    0.4500
      5 O5        -11.5356    1.5779   57.7763 O.2     1  ZINC000599797189   -0.4800
      6 C6        -10.3516   -0.1711   56.7319 C.3     1  ZINC000599797189    0.1500
      7 N7         -9.7279   -0.8173   57.8893 N.pl3   1  ZINC000599797189   -0.3800
      8 C8         -9.5334   -2.1349   58.0668 C.2     1  ZINC000599797189    0.2800
      9 N9         -8.9473   -2.3093   59.2238 N.2     1  ZINC000599797189   -0.5100
     10 C10        -8.7514   -1.1267   59.8143 C.2     1  ZINC000599797189    0.4700
     11 N11        -8.1508   -0.9291   61.0621 N.am    1  ZINC000599797189   -0.6400
     12 C12        -8.8177   -0.2777   62.0355 C.2     1  ZINC000599797189    0.7100
     13 O13        -9.9408    0.1395   61.8285 O.2     1  ZINC000599797189   -0.5300
     14 N14        -8.2396   -0.0888   63.2382 N.am    1  ZINC000599797189   -0.7300
     15 C15        -8.9651    0.6176   64.2968 C.3     1  ZINC000599797189    0.1100
     16 C16        -8.4178    0.1932   65.6611 C.3     1  ZINC000599797189    0.1100
     17 H17        -9.0711   -0.5637   66.0951 H       1  ZINC000599797189    0.1200
     18 O18        -7.1044   -0.3465   65.5003 O.3     1  ZINC000599797189   -0.5400
     19 C19        -8.3596    1.4090   66.5880 C.3     1  ZINC000599797189   -0.1500
     20 C20        -9.6769    2.1393   66.5422 C.2     1  ZINC000599797189    0.4600
     21 O21        -9.7049    3.3191   66.2829 O.2     1  ZINC000599797189   -0.4900
     22 O22       -10.8192    1.4792   66.7895 O.3     1  ZINC000599797189   -0.3600
     23 C23       -12.0545    2.2335   66.6746 C.3     1  ZINC000599797189    0.0400
     24 N24        -9.2101   -0.1813   59.0293 N.2     1  ZINC000599797189   -0.3200
     25 H25       -13.8792   -2.0877   59.3009 H       1  ZINC000599797189    0.0800
     26 H26       -12.9026   -0.6110   59.4857 H       1  ZINC000599797189    0.0700
     27 H27       -14.5591   -0.5078   58.8427 H       1  ZINC000599797189    0.0700
     28 H28       -12.2048   -1.8946   57.4821 H       1  ZINC000599797189    0.0700
     29 H29       -13.8614   -1.7914   56.8391 H       1  ZINC000599797189    0.0700
     30 H30       -10.5998   -0.9249   55.9848 H       1  ZINC000599797189    0.1500
     31 H31        -9.6583    0.5519   56.3021 H       1  ZINC000599797189    0.1300
     32 H32        -9.8126   -2.9152   57.3744 H       1  ZINC000599797189    0.2300
     33 H33        -7.2543   -1.2609   61.2268 H       1  ZINC000599797189    0.4200
     34 H34        -7.3431   -0.4207   63.4030 H       1  ZINC000599797189    0.4000
     35 H35        -8.8349    1.6926   64.1715 H       1  ZINC000599797189    0.0800
     36 H36       -10.0252    0.3708   64.2378 H       1  ZINC000599797189    0.0800
     37 H37        -6.4852    0.2504   65.0583 H       1  ZINC000599797189    0.3800
     38 H38        -8.1622    1.0792   67.6080 H       1  ZINC000599797189    0.1200
     39 H39        -7.5623    2.0769   66.2615 H       1  ZINC000599797189    0.1200
     40 H40       -12.0390    3.0656   67.3784 H       1  ZINC000599797189    0.0600
     41 H41       -12.1525    2.6180   65.6594 H       1  ZINC000599797189    0.0600
     42 H42       -12.8997    1.5830   66.8997 H       1  ZINC000599797189    0.1000
@<TRIPOS>BOND
     1     1     2    1
     2     1    25    1
     3     1    26    1
     4     1    27    1
     5     2     3    1
     6     2    28    1
     7     2    29    1
     8     3     4    1
     9     4     5    2
    10     4     6    1
    11     6     7    1
    12     6    30    1
    13     6    31    1
    14     7    24    1
    15     7     8    1
    16     8     9    2
    17     8    32    1
    18     9    10    1
    19    10    11    1
    20    10    24    2
    21    11    12   am
    22    11    33    1
    23    12    13    2
    24    12    14   am
    25    14    15    1
    26    14    34    1
    27    15    16    1
    28    15    35    1
    29    15    36    1
    30    16    17    1
    31    16    18    1
    32    16    19    1
    33    18    37    1
    34    19    20    1
    35    19    38    1
    36    19    39    1
    37    20    21    2
    38    20    22    1
    39    22    23    1
    40    23    40    1
    41    23    41    1
    42    23    42    1
@<TRIPOS>SUBSTRUCTURE
     1 ZINC000599797189        1 TEMP              0 ****  ****    0 ROOT


##########                                Name:    ZINC000114394234
##########                DOCK_Rotatable_Bonds:                   9
##########                         Heavy_Atoms:                  27
##########                    Molecular_Weight:             365.392
##########                DOCK_Rotatable_Bonds:                   9
##########                       Formal_Charge:           0.0300002
##########                     HBond_Acceptors:                   8
##########                        HBond_Donors:                   3
##########                         Heavy_Atoms:                  27
##########                          Grid_Score:          -31.259142
##########                     Grid_vdw_energy:          -30.480186
##########                      Grid_es_energy:           -0.778956
##########           Internal_energy_repulsive:           10.011786

@<TRIPOS>MOLECULE
ZINC000114394234
 46 48 1 0 0
SMALL
USER_CHARGES


@<TRIPOS>ATOM
      1 C1        -10.1114   -1.9829   58.8423 C.3     1  ZINC000114394234   -0.1600
      2 C2        -10.4874   -0.5380   59.1763 C.3     1  ZINC000114394234    0.1300
      3 H3        -11.5571   -0.3960   59.0221 H       1  ZINC000114394234    0.1200
      4 N4        -10.1544   -0.2577   60.5753 N.am    1  ZINC000114394234   -0.7100
      5 C5        -10.8300    0.6925   61.2514 C.2     1  ZINC000114394234    0.5200
      6 O6        -11.7126    1.3166   60.7014 O.2     1  ZINC000114394234   -0.5100
      7 C7        -10.4887    0.9796   62.6908 C.3     1  ZINC000114394234    0.0400
      8 O8         -9.3598    0.1939   63.0786 O.3     1  ZINC000114394234   -0.2900
      9 C9         -8.8881    0.3723   64.3406 C.ar    1  ZINC000114394234    0.1300
     10 C10        -9.4671    1.3209   65.1712 C.ar    1  ZINC000114394234   -0.2100
     11 C11        -8.9861    1.4999   66.4538 C.ar    1  ZINC000114394234   -0.0800
     12 C12        -7.9284    0.7351   66.9098 C.ar    1  ZINC000114394234   -0.1600
     13 C13        -7.3494   -0.2106   66.0839 C.ar    1  ZINC000114394234   -0.0800
     14 C14        -7.8307   -0.3978   64.8025 C.ar    1  ZINC000114394234   -0.1500
     15 C15        -9.7217    0.4005   58.2799 C.2     1  ZINC000114394234    0.5100
     16 O16       -10.2842    1.3467   57.7705 O.2     1  ZINC000114394234   -0.5100
     17 N17        -8.4118    0.1885   58.0439 N.am    1  ZINC000114394234   -0.6700
     18 C18        -7.7008    1.0600   57.2114 C.ar    1  ZINC000114394234    0.1300
     19 C19        -6.8596    2.0175   57.7644 C.ar    1  ZINC000114394234   -0.1200
     20 C20        -6.1557    2.8801   56.9452 C.ar    1  ZINC000114394234   -0.1000
     21 C21        -6.2848    2.7953   55.5735 C.ar    1  ZINC000114394234   -0.0900
     22 C22        -7.1269    1.8381   55.0102 C.ar    1  ZINC000114394234    0.0000
     23 C23        -7.2672    1.7460   53.5356 C.2     1  ZINC000114394234    0.2700
     24 N24        -7.6522    2.7196   52.7400 N.2     1  ZINC000114394234   -0.3000
     25 N25        -7.6445    2.2016   51.4347 N.pl3   1  ZINC000114394234   -0.4800
     26 C26        -7.2460    0.9206   51.5341 C.2     1  ZINC000114394234    0.2700
     27 N27        -7.0171    0.6587   52.7937 N.2     1  ZINC000114394234   -0.5300
     28 C28        -7.8311    0.9645   55.8340 C.ar    1  ZINC000114394234   -0.0800
     29 H29        -9.0418   -2.1250   58.9966 H       1  ZINC000114394234    0.0700
     30 H30       -10.6653   -2.6618   59.4907 H       1  ZINC000114394234    0.0800
     31 H31       -10.3592   -2.1915   57.8015 H       1  ZINC000114394234    0.0800
     32 H32        -9.4478   -0.7560   61.0148 H       1  ZINC000114394234    0.4100
     33 H33       -10.2514    2.0374   62.8041 H       1  ZINC000114394234    0.1000
     34 H34       -11.3404    0.7286   63.3233 H       1  ZINC000114394234    0.1000
     35 H35       -10.2928    1.9191   64.8151 H       1  ZINC000114394234    0.1300
     36 H36        -9.4364    2.2382   67.1007 H       1  ZINC000114394234    0.1300
     37 H37        -7.5536    0.8768   67.9127 H       1  ZINC000114394234    0.1300
     38 H38        -6.5231   -0.8066   66.4422 H       1  ZINC000114394234    0.1300
     39 H39        -7.3781   -1.1367   64.1577 H       1  ZINC000114394234    0.1300
     40 H40        -7.9619   -0.5682   58.4513 H       1  ZINC000114394234    0.4200
     41 H41        -6.7557    2.0883   58.8370 H       1  ZINC000114394234    0.1300
     42 H42        -5.5029    3.6228   57.3798 H       1  ZINC000114394234    0.1400
     43 H43        -5.7335    3.4712   54.9366 H       1  ZINC000114394234    0.1400
     44 H44        -7.8805    2.6745   50.6214 H       1  ZINC000114394234    0.4400
     45 H45        -7.1305    0.2285   50.7130 H       1  ZINC000114394234    0.2300
     46 H46        -8.4847    0.2211   55.4022 H       1  ZINC000114394234    0.1500
@<TRIPOS>BOND
     1     1     2    1
     2     1    29    1
     3     1    30    1
     4     1    31    1
     5     2     3    1
     6     2     4    1
     7     2    15    1
     8     4     5   am
     9     4    32    1
    10     5     6    2
    11     5     7    1
    12     7     8    1
    13     7    33    1
    14     7    34    1
    15     8     9    1
    16     9    14   ar
    17     9    10   ar
    18    10    11   ar
    19    10    35    1
    20    11    12   ar
    21    11    36    1
    22    12    13   ar
    23    12    37    1
    24    13    14   ar
    25    13    38    1
    26    14    39    1
    27    15    16    2
    28    15    17   am
    29    17    18    1
    30    17    40    1
    31    18    28   ar
    32    18    19   ar
    33    19    20   ar
    34    19    41    1
    35    20    21   ar
    36    20    42    1
    37    21    22   ar
    38    21    43    1
    39    22    23    1
    40    22    28   ar
    41    23    27    1
    42    23    24    2
    43    24    25    1
    44    25    26    1
    45    25    44    1
    46    26    27    2
    47    26    45    1
    48    28    46    1
@<TRIPOS>SUBSTRUCTURE
     1 ZINC000114394234        1 TEMP              0 ****  ****    0 ROOT


##########                                Name:    ZINC000182378855
##########                DOCK_Rotatable_Bonds:                   8
##########                         Heavy_Atoms:                  27
##########                    Molecular_Weight:              394.83
##########                DOCK_Rotatable_Bonds:                   8
##########                       Formal_Charge:          -0.0200001
##########                     HBond_Acceptors:                   8
##########                        HBond_Donors:                   1
##########                         Heavy_Atoms:                  27
##########                          Grid_Score:          -31.233040
##########                     Grid_vdw_energy:          -30.780369
##########                      Grid_es_energy:           -0.452672
##########           Internal_energy_repulsive:           11.026222

@<TRIPOS>MOLECULE
ZINC000182378855
 47 49 1 0 0
SMALL
USER_CHARGES


@<TRIPOS>ATOM
      1 C1         -4.2623    2.7124   52.3016 C.3     1  ZINC000182378855    0.0300
      2 O2         -4.9135    2.2239   51.1271 O.3     1  ZINC000182378855   -0.3900
      3 C3         -6.3099    2.5222   51.0700 C.3     1  ZINC000182378855    0.0600
      4 C4         -7.0901    1.4634   51.8516 C.3     1  ZINC000182378855    0.0700
      5 O5         -7.4067    1.9674   53.1508 O.3     1  ZINC000182378855   -0.2900
      6 C6         -8.0928    1.1425   53.9813 C.ar    1  ZINC000182378855    0.3300
      7 C7         -8.3630    1.5475   55.2816 C.ar    1  ZINC000182378855   -0.1300
      8 C8         -9.0700    0.6876   56.1241 C.ar    1  ZINC000182378855   -0.0600
      9 C9         -9.3823    1.0763   57.5194 C.2     1  ZINC000182378855    0.5600
     10 O10        -9.1736    2.2130   57.8946 O.2     1  ZINC000182378855   -0.5200
     11 N11        -9.8978    0.1690   58.3723 N.am    1  ZINC000182378855   -0.7100
     12 C12       -10.2049    0.5529   59.7524 C.3     1  ZINC000182378855    0.1200
     13 H13       -10.8610    1.4231   59.7688 H       1  ZINC000182378855    0.1100
     14 C14        -8.9048    0.8403   60.5365 C.3     1  ZINC000182378855   -0.1700
     15 C15        -8.9166   -0.2011   61.6774 C.3     1  ZINC000182378855    0.0400
     16 O16        -9.7479   -1.2758   61.1875 O.3     1  ZINC000182378855   -0.3600
     17 C17       -10.8482   -0.6282   60.5123 C.3     1  ZINC000182378855    0.1100
     18 H18       -11.5755   -0.2621   61.2370 H       1  ZINC000182378855    0.1000
     19 C19       -11.5033   -1.5800   59.5449 C.ar    1  ZINC000182378855   -0.0500
     20 C20       -10.7561   -2.5736   58.9407 C.ar    1  ZINC000182378855   -0.1100
     21 C21       -11.3566   -3.4512   58.0570 C.ar    1  ZINC000182378855   -0.0800
     22 C22       -12.7034   -3.3288   57.7684 C.ar    1  ZINC000182378855   -0.0700
     23 Cl23      -13.4562   -4.4266   56.6541 Cl      1  ZINC000182378855   -0.0400
     24 C24       -13.4518   -2.3293   58.3696 C.ar    1  ZINC000182378855    0.1200
     25 F25       -14.7678   -2.2084   58.0891 F       1  ZINC000182378855   -0.1200
     26 C26       -12.8499   -1.4553   59.2581 C.ar    1  ZINC000182378855   -0.1300
     27 C27        -9.4760   -0.5511   55.6154 C.ar    1  ZINC000182378855   -0.1900
     28 C28        -9.1659   -0.8758   54.3103 C.ar    1  ZINC000182378855    0.1400
     29 N29        -8.5009   -0.0355   53.5415 N.ar    1  ZINC000182378855   -0.5200
     30 H30        -4.7227    2.2678   53.1838 H       1  ZINC000182378855    0.0400
     31 H31        -3.2061    2.4453   52.2691 H       1  ZINC000182378855    0.0900
     32 H32        -4.3616    3.7970   52.3475 H       1  ZINC000182378855    0.0400
     33 H33        -6.4900    3.5037   51.5085 H       1  ZINC000182378855    0.0600
     34 H34        -6.6390    2.5226   50.0309 H       1  ZINC000182378855    0.0700
     35 H35        -8.0112    1.2246   51.3201 H       1  ZINC000182378855    0.0800
     36 H36        -6.4832    0.5632   51.9493 H       1  ZINC000182378855    0.0800
     37 H37        -8.0313    2.5124   55.6358 H       1  ZINC000182378855    0.1600
     38 H38       -10.0654   -0.7381   58.0725 H       1  ZINC000182378855    0.4000
     39 H39        -8.0337    0.6967   59.8973 H       1  ZINC000182378855    0.0900
     40 H40        -8.9194    1.8517   60.9425 H       1  ZINC000182378855    0.0900
     41 H41        -7.9067   -0.5615   61.8726 H       1  ZINC000182378855    0.1000
     42 H42        -9.3458    0.2310   62.5813 H       1  ZINC000182378855    0.0700
     43 H43        -9.7032   -2.6668   59.1620 H       1  ZINC000182378855    0.1500
     44 H44       -10.7727   -4.2298   57.5889 H       1  ZINC000182378855    0.1500
     45 H45       -13.4322   -0.6762   59.7276 H       1  ZINC000182378855    0.1500
     46 H46       -10.0252   -1.2439   56.2358 H       1  ZINC000182378855    0.1400
     47 H47        -9.4764   -1.8301   53.9113 H       1  ZINC000182378855    0.1700
@<TRIPOS>BOND
     1     1     2    1
     2     1    30    1
     3     1    31    1
     4     1    32    1
     5     2     3    1
     6     3     4    1
     7     3    33    1
     8     3    34    1
     9     4     5    1
    10     4    35    1
    11     4    36    1
    12     5     6    1
    13     6    29   ar
    14     6     7   ar
    15     7     8   ar
    16     7    37    1
    17     8     9    1
    18     8    27   ar
    19     9    10    2
    20     9    11   am
    21    11    12    1
    22    11    38    1
    23    12    13    1
    24    12    17    1
    25    12    14    1
    26    14    15    1
    27    14    39    1
    28    14    40    1
    29    15    16    1
    30    15    41    1
    31    15    42    1
    32    16    17    1
    33    17    18    1
    34    17    19    1
    35    19    26   ar
    36    19    20   ar
    37    20    21   ar
    38    20    43    1
    39    21    22   ar
    40    21    44    1
    41    22    23    1
    42    22    24   ar
    43    24    25    1
    44    24    26   ar
    45    26    45    1
    46    27    28   ar
    47    27    46    1
    48    28    29   ar
    49    28    47    1
@<TRIPOS>SUBSTRUCTURE
     1 ZINC000182378855        1 TEMP              0 ****  ****    0 ROOT


##########                                Name:    ZINC000880838037
##########                DOCK_Rotatable_Bonds:                   9
##########                         Heavy_Atoms:                  24
##########                    Molecular_Weight:             365.477
##########                DOCK_Rotatable_Bonds:                   9
##########                       Formal_Charge:           0.0200001
##########                     HBond_Acceptors:                   8
##########                        HBond_Donors:                   3
##########                         Heavy_Atoms:                  24
##########                          Grid_Score:          -31.228676
##########                     Grid_vdw_energy:          -29.178020
##########                      Grid_es_energy:           -2.050655
##########           Internal_energy_repulsive:           15.428138

@<TRIPOS>MOLECULE
ZINC000880838037
 43 44 1 0 0
SMALL
USER_CHARGES


@<TRIPOS>ATOM
      1 C1        -10.4326    3.1367   64.5146 C.3     1  ZINC000880838037    0.0300
      2 O2        -10.8729    1.8220   64.1682 O.3     1  ZINC000880838037   -0.3100
      3 C3        -10.0474    1.0819   63.3825 C.ar    1  ZINC000880838037    0.1400
      4 C4         -8.8798    0.5492   63.9104 C.ar    1  ZINC000880838037   -0.2200
      5 C5         -8.0391   -0.2038   63.1126 C.ar    1  ZINC000880838037   -0.0700
      6 C6         -8.3578   -0.4280   61.7874 C.ar    1  ZINC000880838037   -0.1500
      7 C7         -9.5252    0.1033   61.2535 C.ar    1  ZINC000880838037    0.1800
      8 N8         -9.8482   -0.1238   59.9111 N.am    1  ZINC000880838037   -0.6700
      9 C9        -10.2031   -1.3583   59.5028 C.2     1  ZINC000880838037    0.5200
     10 O10       -10.2425   -2.2723   60.2991 O.2     1  ZINC000880838037   -0.4900
     11 C11       -10.5509   -1.6028   58.0571 C.3     1  ZINC000880838037   -0.0600
     12 C12       -11.7738   -2.4797   57.9760 C.2     1  ZINC000880838037    0.1000
     13 C13       -11.9552   -3.3749   57.0047 C.2     1  ZINC000880838037   -0.2600
     14 S14       -13.4983   -4.1784   57.2819 S.3     1  ZINC000880838037    0.1300
     15 C15       -13.7525   -3.2304   58.6818 C.2     1  ZINC000880838037    0.0100
     16 S16       -15.1660   -3.3348   59.7287 S.3     1  ZINC000880838037    0.1000
     17 C17       -15.8981   -1.7064   59.4315 C.3     1  ZINC000880838037   -0.1500
     18 H18       -16.9366   -1.7091   59.7624 H       1  ZINC000880838037    0.1200
     19 C19       -15.8399   -1.3861   57.9365 C.3     1  ZINC000880838037   -0.1500
     20 C20       -15.1290   -0.6621   60.1991 C.2     1  ZINC000880838037    0.5400
     21 N21       -15.0471    0.5974   59.7266 N.am    1  ZINC000880838037   -0.8400
     22 O22       -14.5838   -0.9552   61.2420 O.2     1  ZINC000880838037   -0.5200
     23 N23       -12.7499   -2.4271   58.8645 N.2     1  ZINC000880838037   -0.4200
     24 C24       -10.3737    0.8539   62.0547 C.ar    1  ZINC000880838037   -0.1500
     25 C25       -11.6409    1.4317   61.4789 C.3     1  ZINC000880838037   -0.1000
     26 H26       -10.2892    3.7227   63.6068 H       1  ZINC000880838037    0.0600
     27 H27       -11.1828    3.6174   65.1426 H       1  ZINC000880838037    0.1000
     28 H28        -9.4903    3.0727   65.0585 H       1  ZINC000880838037    0.0600
     29 H29        -8.6275    0.7234   64.9460 H       1  ZINC000880838037    0.1300
     30 H30        -7.1310   -0.6171   63.5258 H       1  ZINC000880838037    0.1300
     31 H31        -7.6990   -1.0163   61.1660 H       1  ZINC000880838037    0.1400
     32 H32        -9.8167    0.6073   59.2743 H       1  ZINC000880838037    0.4100
     33 H33       -10.7531   -0.6509   57.5660 H       1  ZINC000880838037    0.1200
     34 H34        -9.7157   -2.0973   57.5611 H       1  ZINC000880838037    0.1200
     35 H35       -11.2749   -3.5727   56.1895 H       1  ZINC000880838037    0.1800
     36 H36       -14.8014   -1.3834   57.6056 H       1  ZINC000880838037    0.0900
     37 H37       -16.3962   -2.1414   57.3812 H       1  ZINC000880838037    0.0800
     38 H38       -16.2809   -0.4055   57.7576 H       1  ZINC000880838037    0.0800
     39 H39       -14.5531    1.2699   60.2212 H       1  ZINC000880838037    0.4000
     40 H40       -15.4821    0.8315   58.8918 H       1  ZINC000880838037    0.4100
     41 H41       -12.4547    0.7170   61.6017 H       1  ZINC000880838037    0.0700
     42 H42       -11.8880    2.3567   61.9999 H       1  ZINC000880838037    0.0700
     43 H43       -11.4966    1.6393   60.4187 H       1  ZINC000880838037    0.0600
@<TRIPOS>BOND
     1     1     2    1
     2     1    26    1
     3     1    27    1
     4     1    28    1
     5     2     3    1
     6     3    24   ar
     7     3     4   ar
     8     4     5   ar
     9     4    29    1
    10     5     6   ar
    11     5    30    1
    12     6     7   ar
    13     6    31    1
    14     7     8    1
    15     7    24   ar
    16     8     9   am
    17     8    32    1
    18     9    10    2
    19     9    11    1
    20    11    12    1
    21    11    33    1
    22    11    34    1
    23    12    23    1
    24    12    13    2
    25    13    14    1
    26    13    35    1
    27    14    15    1
    28    15    16    1
    29    15    23    2
    30    16    17    1
    31    17    18    1
    32    17    19    1
    33    17    20    1
    34    19    36    1
    35    19    37    1
    36    19    38    1
    37    20    21   am
    38    20    22    2
    39    21    39    1
    40    21    40    1
    41    24    25    1
    42    25    41    1
    43    25    42    1
    44    25    43    1
@<TRIPOS>SUBSTRUCTURE
     1 ZINC000880838037        1 TEMP              0 ****  ****    0 ROOT


##########                                Name:    ZINC000050607728
##########                DOCK_Rotatable_Bonds:                  10
##########                         Heavy_Atoms:                  31
##########                    Molecular_Weight:             416.476
##########                DOCK_Rotatable_Bonds:                  10
##########                       Formal_Charge:          -0.0199995
##########                     HBond_Acceptors:                   6
##########                        HBond_Donors:                   1
##########                         Heavy_Atoms:                  31
##########                          Grid_Score:          -31.214882
##########                     Grid_vdw_energy:          -33.437191
##########                      Grid_es_energy:            2.222309
##########           Internal_energy_repulsive:           12.680545

@<TRIPOS>MOLECULE
ZINC000050607728
 55 57 1 0 0
SMALL
USER_CHARGES


@<TRIPOS>ATOM
      1 C1         -6.4604    2.2570   50.9445 C.3     1  ZINC000050607728    0.0800
      2 N2         -7.5514    2.1478   51.9161 N.am    1  ZINC000050607728   -0.6200
      3 C3         -8.5703    3.1974   51.9944 C.3     1  ZINC000050607728    0.0700
      4 C4         -7.6177    1.0816   52.7379 C.2     1  ZINC000050607728    0.5600
      5 O5         -6.7724    0.2107   52.6730 O.2     1  ZINC000050607728   -0.5300
      6 C6         -8.7187    0.9714   53.7184 C.ar    1  ZINC000050607728   -0.1400
      7 C7         -9.9578    0.4625   53.3266 C.ar    1  ZINC000050607728   -0.0800
      8 C8        -10.9810    0.3618   54.2466 C.ar    1  ZINC000050607728   -0.1300
      9 C9        -10.7810    0.7645   55.5549 C.ar    1  ZINC000050607728   -0.0700
     10 C10        -9.5551    1.2705   55.9498 C.ar    1  ZINC000050607728   -0.1100
     11 C11        -9.3463    1.7073   57.3770 C.3     1  ZINC000050607728    0.1100
     12 O12        -9.0066    0.5541   58.1913 O.3     1  ZINC000050607728   -0.3400
     13 C13        -8.8321    0.7660   59.5052 C.2     1  ZINC000050607728    0.4700
     14 O14        -8.4702    1.8493   59.8996 O.2     1  ZINC000050607728   -0.5000
     15 C15        -9.0874   -0.3472   60.4884 C.3     1  ZINC000050607728    0.2000
     16 H16        -8.1786   -0.9353   60.6155 H       1  ZINC000050607728    0.1400
     17 N17        -9.4850    0.2222   61.7784 N.am    1  ZINC000050607728   -0.7100
     18 C18        -8.7088    0.0373   62.8645 C.2     1  ZINC000050607728    0.5700
     19 O19        -7.6781   -0.6005   62.7736 O.2     1  ZINC000050607728   -0.5200
     20 C20        -9.1110    0.6105   64.1667 C.ar    1  ZINC000050607728   -0.1400
     21 C21        -8.4398    0.2397   65.3330 C.ar    1  ZINC000050607728   -0.0800
     22 C22        -8.8198    0.7786   66.5448 C.ar    1  ZINC000050607728   -0.1300
     23 C23        -9.8637    1.6844   66.6056 C.ar    1  ZINC000050607728   -0.0900
     24 C24       -10.5335    2.0559   65.4533 C.ar    1  ZINC000050607728   -0.1300
     25 C25       -10.1596    1.5291   64.2343 C.ar    1  ZINC000050607728   -0.0600
     26 C26       -10.1904   -1.2330   59.9690 C.ar    1  ZINC000050607728   -0.1000
     27 C27       -11.5091   -0.9371   60.2593 C.ar    1  ZINC000050607728   -0.1000
     28 C28       -12.5208   -1.7497   59.7828 C.ar    1  ZINC000050607728   -0.1200
     29 C29       -12.2139   -2.8579   59.0157 C.ar    1  ZINC000050607728   -0.1100
     30 C30       -10.8951   -3.1533   58.7247 C.ar    1  ZINC000050607728   -0.1200
     31 C31        -9.8837   -2.3384   59.1975 C.ar    1  ZINC000050607728   -0.0800
     32 C32        -8.5219    1.3706   55.0414 C.ar    1  ZINC000050607728   -0.0400
     33 H33        -5.6211    2.7842   51.3983 H       1  ZINC000050607728    0.0600
     34 H34        -6.1419    1.2593   50.6421 H       1  ZINC000050607728    0.0800
     35 H35        -6.8061    2.8087   50.0703 H       1  ZINC000050607728    0.0700
     36 H36        -9.3503    3.0023   51.2584 H       1  ZINC000050607728    0.0600
     37 H37        -9.0070    3.2063   52.9930 H       1  ZINC000050607728    0.0800
     38 H38        -8.1117    4.1650   51.7899 H       1  ZINC000050607728    0.0700
     39 H39       -10.1154    0.1484   52.3053 H       1  ZINC000050607728    0.1400
     40 H40       -11.9404   -0.0319   53.9447 H       1  ZINC000050607728    0.1400
     41 H41       -11.5853    0.6841   56.2711 H       1  ZINC000050607728    0.1300
     42 H42        -8.5351    2.4339   57.4197 H       1  ZINC000050607728    0.0900
     43 H43       -10.2618    2.1621   57.7553 H       1  ZINC000050607728    0.0900
     44 H44       -10.3069    0.7323   61.8507 H       1  ZINC000050607728    0.4100
     45 H45        -7.6251   -0.4679   65.2870 H       1  ZINC000050607728    0.1300
     46 H46        -8.3013    0.4925   67.4480 H       1  ZINC000050607728    0.1300
     47 H47       -10.1575    2.1032   67.5569 H       1  ZINC000050607728    0.1300
     48 H48       -11.3479    2.7632   65.5077 H       1  ZINC000050607728    0.1300
     49 H49       -10.6830    1.8202   63.3355 H       1  ZINC000050607728    0.1400
     50 H50       -11.7489   -0.0712   60.8585 H       1  ZINC000050607728    0.1200
     51 H51       -13.5511   -1.5188   60.0101 H       1  ZINC000050607728    0.1200
     52 H52       -13.0043   -3.4931   58.6440 H       1  ZINC000050607728    0.1200
     53 H53       -10.6553   -4.0194   58.1256 H       1  ZINC000050607728    0.1300
     54 H54        -8.8535   -2.5692   58.9702 H       1  ZINC000050607728    0.1300
     55 H55        -7.5654    1.7653   55.3510 H       1  ZINC000050607728    0.1300
@<TRIPOS>BOND
     1     1     2    1
     2     1    33    1
     3     1    34    1
     4     1    35    1
     5     2     3    1
     6     2     4   am
     7     3    36    1
     8     3    37    1
     9     3    38    1
    10     4     5    2
    11     4     6    1
    12     6    32   ar
    13     6     7   ar
    14     7     8   ar
    15     7    39    1
    16     8     9   ar
    17     8    40    1
    18     9    10   ar
    19     9    41    1
    20    10    11    1
    21    10    32   ar
    22    11    12    1
    23    11    42    1
    24    11    43    1
    25    12    13    1
    26    13    14    2
    27    13    15    1
    28    15    16    1
    29    15    17    1
    30    15    26    1
    31    17    18   am
    32    17    44    1
    33    18    19    2
    34    18    20    1
    35    20    25   ar
    36    20    21   ar
    37    21    22   ar
    38    21    45    1
    39    22    23   ar
    40    22    46    1
    41    23    24   ar
    42    23    47    1
    43    24    25   ar
    44    24    48    1
    45    25    49    1
    46    26    31   ar
    47    26    27   ar
    48    27    28   ar
    49    27    50    1
    50    28    29   ar
    51    28    51    1
    52    29    30   ar
    53    29    52    1
    54    30    31   ar
    55    30    53    1
    56    31    54    1
    57    32    55    1
@<TRIPOS>SUBSTRUCTURE
     1 ZINC000050607728        1 TEMP              0 ****  ****    0 ROOT


##########                                Name:    ZINC000771225867
##########                DOCK_Rotatable_Bonds:                   9
##########                         Heavy_Atoms:                  23
##########                    Molecular_Weight:             355.802
##########                DOCK_Rotatable_Bonds:                   9
##########                       Formal_Charge:        -3.12924e-07
##########                     HBond_Acceptors:                   9
##########                        HBond_Donors:                   3
##########                         Heavy_Atoms:                  23
##########                          Grid_Score:          -31.198086
##########                     Grid_vdw_energy:          -29.002457
##########                      Grid_es_energy:           -2.195630
##########           Internal_energy_repulsive:            9.817514

@<TRIPOS>MOLECULE
ZINC000771225867
 37 38 1 0 0
SMALL
USER_CHARGES


@<TRIPOS>ATOM
      1 C1        -15.0963   -3.4378   59.1095 C.3     1  ZINC000771225867    0.0400
      2 O2        -14.0271   -2.9357   58.3051 O.3     1  ZINC000771225867   -0.3600
      3 C3        -12.8953   -2.5752   58.9460 C.2     1  ZINC000771225867    0.5500
      4 O4        -12.8194   -2.6855   60.1556 O.2     1  ZINC000771225867   -0.4900
      5 C5        -11.7968   -2.0686   58.2111 C.2     1  ZINC000771225867   -0.3400
      6 C6        -10.6017   -1.6469   58.7326 C.2     1  ZINC000771225867    0.2700
      7 Cl7       -10.2487   -1.6742   60.4321 Cl      1  ZINC000771225867    0.0400
      8 N8         -9.7501   -1.2220   57.8337 N.2     1  ZINC000771225867   -0.5500
      9 C9        -10.1320   -1.2512   56.5888 C.2     1  ZINC000771225867    0.3400
     10 N10        -9.3615   -0.8427   55.5220 N.pl3   1  ZINC000771225867   -0.6700
     11 C11        -9.8972   -0.9171   54.1606 C.3     1  ZINC000771225867    0.1700
     12 C12        -9.5037    0.3214   53.3975 C.ar    1  ZINC000771225867   -0.0800
     13 C13       -10.3670    1.3995   53.3381 C.ar    1  ZINC000771225867   -0.1300
     14 C14       -10.0089    2.5374   52.6388 C.ar    1  ZINC000771225867   -0.0800
     15 C15        -8.7870    2.5995   51.9975 C.ar    1  ZINC000771225867   -0.2000
     16 C16        -7.9187    1.5188   52.0557 C.ar    1  ZINC000771225867    0.1300
     17 O17        -6.7158    1.5776   51.4260 O.3     1  ZINC000771225867   -0.2900
     18 C18        -5.5805    1.0991   52.1500 C.3     1  ZINC000771225867    0.0400
     19 C19        -4.3356    1.7751   51.6361 C.2     1  ZINC000771225867    0.5200
     20 N20        -3.8461    2.8586   52.2709 N.am    1  ZINC000771225867   -0.8500
     21 O21        -3.7741    1.3442   50.6511 O.2     1  ZINC000771225867   -0.5200
     22 C22        -8.2779    0.3806   52.7625 C.ar    1  ZINC000771225867   -0.1200
     23 S23       -11.7182   -1.8746   56.4618 S.3     1  ZINC000771225867    0.2200
     24 H24       -14.7636   -4.3296   59.6406 H       1  ZINC000771225867    0.0600
     25 H25       -15.3972   -2.6770   59.8298 H       1  ZINC000771225867    0.0600
     26 H26       -15.9436   -3.6896   58.4716 H       1  ZINC000771225867    0.1000
     27 H27        -8.4644   -0.5059   55.6725 H       1  ZINC000771225867    0.4200
     28 H28        -9.4935   -1.7966   53.6588 H       1  ZINC000771225867    0.0900
     29 H29       -10.9840   -0.9889   54.2011 H       1  ZINC000771225867    0.0900
     30 H30       -11.3229    1.3527   53.8385 H       1  ZINC000771225867    0.1300
     31 H31       -10.6852    3.3782   52.5936 H       1  ZINC000771225867    0.1300
     32 H32        -8.5080    3.4883   51.4512 H       1  ZINC000771225867    0.1300
     33 H33        -5.7045    1.3229   53.2095 H       1  ZINC000771225867    0.1000
     34 H34        -5.4909    0.0212   52.0143 H       1  ZINC000771225867    0.1000
     35 H35        -3.0441    3.2931   51.9408 H       1  ZINC000771225867    0.4000
     36 H36        -4.2957    3.2038   53.0580 H       1  ZINC000771225867    0.4100
     37 H37        -7.6039   -0.4619   52.8093 H       1  ZINC000771225867    0.1400
@<TRIPOS>BOND
     1     1     2    1
     2     1    24    1
     3     1    25    1
     4     1    26    1
     5     2     3    1
     6     3     4    2
     7     3     5    1
     8     5    23    1
     9     5     6    2
    10     6     7    1
    11     6     8    1
    12     8     9    2
    13     9    10    1
    14     9    23    1
    15    10    11    1
    16    10    27    1
    17    11    12    1
    18    11    28    1
    19    11    29    1
    20    12    22   ar
    21    12    13   ar
    22    13    14   ar
    23    13    30    1
    24    14    15   ar
    25    14    31    1
    26    15    16   ar
    27    15    32    1
    28    16    17    1
    29    16    22   ar
    30    17    18    1
    31    18    19    1
    32    18    33    1
    33    18    34    1
    34    19    20   am
    35    19    21    2
    36    20    35    1
    37    20    36    1
    38    22    37    1
@<TRIPOS>SUBSTRUCTURE
     1 ZINC000771225867        1 TEMP              0 ****  ****    0 ROOT


##########                                Name:    ZINC000298969660
##########                DOCK_Rotatable_Bonds:                  10
##########                         Heavy_Atoms:                  29
##########                    Molecular_Weight:             397.474
##########                DOCK_Rotatable_Bonds:                  10
##########                       Formal_Charge:          -0.0100008
##########                     HBond_Acceptors:                   7
##########                        HBond_Donors:                   2
##########                         Heavy_Atoms:                  29
##########                          Grid_Score:          -31.172892
##########                     Grid_vdw_energy:          -29.623352
##########                      Grid_es_energy:           -1.549540
##########           Internal_energy_repulsive:          162.137207

@<TRIPOS>MOLECULE
ZINC000298969660
 56 58 1 0 0
SMALL
USER_CHARGES


@<TRIPOS>ATOM
      1 C1         -9.2242    2.0257   60.0604 C.3     1  ZINC000298969660    0.0800
      2 N2         -8.5901    0.9412   59.3068 N.am    1  ZINC000298969660   -0.6300
      3 C3         -8.9759   -0.4492   59.5596 C.3     1  ZINC000298969660    0.1400
      4 C4        -10.1042   -0.8470   58.6058 C.3     1  ZINC000298969660    0.0700
      5 H5        -10.9032   -0.1077   58.6597 H       1  ZINC000298969660    0.0500
      6 C6        -10.6509   -2.2199   59.0060 C.3     1  ZINC000298969660   -0.1500
      7 C7        -11.7382   -2.6376   58.0112 C.3     1  ZINC000298969660   -0.1200
      8 C8        -11.1489   -2.6361   56.5973 C.3     1  ZINC000298969660   -0.1600
      9 C9        -10.5829   -1.2472   56.2901 C.3     1  ZINC000298969660    0.0600
     10 O10        -9.6000   -0.9072   57.2700 O.3     1  ZINC000298969660   -0.3600
     11 C11        -7.6520    1.2227   58.3810 C.2     1  ZINC000298969660    0.7100
     12 O12        -7.1269    0.3227   57.7545 O.2     1  ZINC000298969660   -0.5400
     13 N13        -7.2960    2.5019   58.1496 N.am    1  ZINC000298969660   -0.6900
     14 C14        -6.3219    2.7941   57.1884 C.ar    1  ZINC000298969660    0.2000
     15 C15        -6.6478    2.7695   55.8386 C.ar    1  ZINC000298969660   -0.1800
     16 C16        -5.6859    3.0575   54.8894 C.ar    1  ZINC000298969660   -0.0600
     17 C17        -4.3982    3.3709   55.2801 C.ar    1  ZINC000298969660   -0.2300
     18 C18        -4.0669    3.3970   56.6278 C.ar    1  ZINC000298969660    0.1500
     19 O19        -2.7998    3.7050   57.0105 O.3     1  ZINC000298969660   -0.2900
     20 C20        -2.0233    2.6541   57.5893 C.3     1  ZINC000298969660    0.0400
     21 C21        -0.5939    2.7724   57.1266 C.2     1  ZINC000298969660    0.5100
     22 O22        -0.3455    3.2567   56.0427 O.2     1  ZINC000298969660   -0.4900
     23 N23         0.4082    2.3399   57.9172 N.am    1  ZINC000298969660   -0.6700
     24 C24         1.7354    2.4497   57.4876 C.ar    1  ZINC000298969660    0.1400
     25 C25         2.7689    2.0005   58.2991 C.ar    1  ZINC000298969660   -0.1400
     26 C26         4.0777    2.1103   57.8722 C.ar    1  ZINC000298969660   -0.1000
     27 C27         4.3597    2.6673   56.6384 C.ar    1  ZINC000298969660   -0.1300
     28 C28         3.3329    3.1160   55.8281 C.ar    1  ZINC000298969660   -0.1000
     29 C29         2.0214    3.0030   56.2464 C.ar    1  ZINC000298969660   -0.1200
     30 C30        -5.0304    3.1142   57.5830 C.ar    1  ZINC000298969660   -0.1500
     31 H31        -8.6505    2.2227   60.9661 H       1  ZINC000298969660    0.0600
     32 H32        -9.2539    2.9259   59.4463 H       1  ZINC000298969660    0.0700
     33 H33       -10.2398    1.7358   60.3295 H       1  ZINC000298969660    0.0800
     34 H34        -8.1166   -1.1000   59.3972 H       1  ZINC000298969660    0.1000
     35 H35        -9.3183   -0.5499   60.5894 H       1  ZINC000298969660    0.0900
     36 H36        -9.8434   -2.9518   58.9916 H       1  ZINC000298969660    0.0800
     37 H37       -11.0759   -2.1646   60.0082 H       1  ZINC000298969660    0.0700
     38 H38       -12.0927   -3.6385   58.2574 H       1  ZINC000298969660    0.0700
     39 H39       -12.5682   -1.9328   58.0610 H       1  ZINC000298969660    0.0600
     40 H40       -10.3515   -3.3765   56.5342 H       1  ZINC000298969660    0.0700
     41 H41       -11.9302   -2.8786   55.8768 H       1  ZINC000298969660    0.0700
     42 H42       -10.1241   -1.2521   55.3014 H       1  ZINC000298969660    0.0900
     43 H43       -11.3885   -0.5132   56.3135 H       1  ZINC000298969660    0.0400
     44 H44        -7.7149    3.2198   58.6495 H       1  ZINC000298969660    0.4100
     45 H45        -7.6536    2.5248   55.5306 H       1  ZINC000298969660    0.1300
     46 H46        -5.9409    3.0372   53.8402 H       1  ZINC000298969660    0.1300
     47 H47        -3.6484    3.5956   54.5359 H       1  ZINC000298969660    0.1300
     48 H48        -2.0610    2.7307   58.6759 H       1  ZINC000298969660    0.1000
     49 H49        -2.4272    1.6905   57.2787 H       1  ZINC000298969660    0.1000
     50 H50         0.2095    1.9526   58.7840 H       1  ZINC000298969660    0.4100
     51 H51         2.5493    1.5660   59.2632 H       1  ZINC000298969660    0.1300
     52 H52         4.8819    1.7610   58.5028 H       1  ZINC000298969660    0.1300
     53 H53         5.3841    2.7524   56.3069 H       1  ZINC000298969660    0.1200
     54 H54         3.5564    3.5512   54.8653 H       1  ZINC000298969660    0.1300
     55 H55         1.2199    3.3536   55.6132 H       1  ZINC000298969660    0.1300
     56 H56        -4.7744    3.1340   58.6319 H       1  ZINC000298969660    0.1500
@<TRIPOS>BOND
     1     1     2    1
     2     1    31    1
     3     1    32    1
     4     1    33    1
     5     2     3    1
     6     2    11   am
     7     3     4    1
     8     3    34    1
     9     3    35    1
    10     4     5    1
    11     4    10    1
    12     4     6    1
    13     6     7    1
    14     6    36    1
    15     6    37    1
    16     7     8    1
    17     7    38    1
    18     7    39    1
    19     8     9    1
    20     8    40    1
    21     8    41    1
    22     9    10    1
    23     9    42    1
    24     9    43    1
    25    11    12    2
    26    11    13   am
    27    13    14    1
    28    13    44    1
    29    14    30   ar
    30    14    15   ar
    31    15    16   ar
    32    15    45    1
    33    16    17   ar
    34    16    46    1
    35    17    18   ar
    36    17    47    1
    37    18    19    1
    38    18    30   ar
    39    19    20    1
    40    20    21    1
    41    20    48    1
    42    20    49    1
    43    21    22    2
    44    21    23   am
    45    23    24    1
    46    23    50    1
    47    24    29   ar
    48    24    25   ar
    49    25    26   ar
    50    25    51    1
    51    26    27   ar
    52    26    52    1
    53    27    28   ar
    54    27    53    1
    55    28    29   ar
    56    28    54    1
    57    29    55    1
    58    30    56    1
@<TRIPOS>SUBSTRUCTURE
     1 ZINC000298969660        1 TEMP              0 ****  ****    0 ROOT


##########                                Name:    ZINC000952280524
##########                DOCK_Rotatable_Bonds:                   9
##########                         Heavy_Atoms:                  25
##########                    Molecular_Weight:             348.486
##########                DOCK_Rotatable_Bonds:                   9
##########                       Formal_Charge:          -0.0100004
##########                     HBond_Acceptors:                   5
##########                        HBond_Donors:                   1
##########                         Heavy_Atoms:                  25
##########                          Grid_Score:          -31.166277
##########                     Grid_vdw_energy:          -29.794909
##########                      Grid_es_energy:           -1.371369
##########           Internal_energy_repulsive:           24.087664

@<TRIPOS>MOLECULE
ZINC000952280524
 57 59 1 0 0
SMALL
USER_CHARGES


@<TRIPOS>ATOM
      1 C1         -9.2417    2.6449   61.9021 C.3     1  ZINC000952280524   -0.1800
      2 C2        -10.0480    1.3789   61.6052 C.3     1  ZINC000952280524    0.1400
      3 C3         -9.1106    0.2877   61.0842 C.3     1  ZINC000952280524   -0.1900
      4 O4        -10.6848    0.9280   62.8024 O.3     1  ZINC000952280524   -0.5500
      5 C5        -11.1098    1.6868   60.5475 C.3     1  ZINC000952280524   -0.1200
      6 C6        -11.8672    0.4273   60.2145 C.2     1  ZINC000952280524    0.5300
      7 O7        -12.5571   -0.1063   61.0573 O.2     1  ZINC000952280524   -0.5100
      8 N8        -11.7778   -0.1063   58.9801 N.am    1  ZINC000952280524   -0.6300
      9 C9        -12.4600   -1.3255   58.5221 C.3     1  ZINC000952280524    0.1000
     10 C10       -12.0414   -1.5614   57.0557 C.3     1  ZINC000952280524   -0.1300
     11 C11       -10.7058   -0.7795   56.9454 C.3     1  ZINC000952280524   -0.1000
     12 H12        -9.8729   -1.3737   57.3216 H       1  ZINC000952280524    0.0900
     13 C13       -10.4497   -0.3318   55.5050 C.3     1  ZINC000952280524   -0.0700
     14 C14        -9.1846    0.5279   55.4556 C.3     1  ZINC000952280524   -0.1300
     15 C15        -8.9506    1.0029   54.0180 C.3     1  ZINC000952280524    0.1100
     16 N16        -8.9190   -0.1688   53.1321 N.am    1  ZINC000952280524   -0.6100
     17 C17        -7.8758   -0.3757   52.3041 C.2     1  ZINC000952280524    0.5500
     18 O18        -7.8614   -1.3494   51.5756 O.2     1  ZINC000952280524   -0.5500
     19 C19        -6.7545    0.5763   52.2818 C.2     1  ZINC000952280524   -0.2200
     20 C20        -6.8382    1.6851   51.5521 C.2     1  ZINC000952280524   -0.0300
     21 C21        -5.6903    2.6613   51.5306 C.3     1  ZINC000952280524   -0.1500
     22 C22        -4.9450    2.9043   52.8445 C.3     1  ZINC000952280524   -0.1700
     23 C23        -4.2809    2.0988   51.7259 C.3     1  ZINC000952280524   -0.1600
     24 C24       -10.0459   -1.1110   53.1663 C.3     1  ZINC000952280524    0.1000
     25 C25       -10.2676   -1.5622   54.6134 C.3     1  ZINC000952280524   -0.1300
     26 C26       -10.9847    0.4394   57.8635 C.3     1  ZINC000952280524    0.1100
     27 H27        -8.6864    2.9391   61.0116 H       1  ZINC000952280524    0.0700
     28 H28        -9.9198    3.4484   62.1895 H       1  ZINC000952280524    0.0600
     29 H29        -8.5445    2.4488   62.7167 H       1  ZINC000952280524    0.0600
     30 H30        -8.3542    0.0683   61.8377 H       1  ZINC000952280524    0.0600
     31 H31        -9.6850   -0.6142   60.8727 H       1  ZINC000952280524    0.0800
     32 H32        -8.6248    0.6316   60.1710 H       1  ZINC000952280524    0.0600
     33 H33       -10.0706    0.7131   63.5176 H       1  ZINC000952280524    0.3700
     34 H34       -11.8015    2.4352   60.9344 H       1  ZINC000952280524    0.1000
     35 H35       -10.6267    2.0688   59.6482 H       1  ZINC000952280524    0.1000
     36 H36       -12.1553   -2.1734   59.1356 H       1  ZINC000952280524    0.0700
     37 H37       -13.5400   -1.1908   58.5823 H       1  ZINC000952280524    0.0700
     38 H38       -11.8835   -2.6231   56.8657 H       1  ZINC000952280524    0.0800
     39 H39       -12.7852   -1.1526   56.3718 H       1  ZINC000952280524    0.0800
     40 H40       -11.2990    0.2517   55.1496 H       1  ZINC000952280524    0.0800
     41 H41        -9.3060    1.3919   56.1089 H       1  ZINC000952280524    0.0800
     42 H42        -8.3304   -0.0624   55.7873 H       1  ZINC000952280524    0.0700
     43 H43        -9.7603    1.6673   53.7164 H       1  ZINC000952280524    0.0700
     44 H44        -7.9994    1.5320   53.9582 H       1  ZINC000952280524    0.0900
     45 H45        -5.8636    0.3749   52.8578 H       1  ZINC000952280524    0.1300
     46 H46        -7.7287    1.8859   50.9751 H       1  ZINC000952280524    0.1300
     47 H47        -5.8052    3.5072   50.8529 H       1  ZINC000952280524    0.1200
     48 H48        -4.5693    3.9102   53.0314 H       1  ZINC000952280524    0.1000
     49 H49        -5.2848    2.3581   53.7244 H       1  ZINC000952280524    0.1000
     50 H50        -4.1839    1.0227   51.8699 H       1  ZINC000952280524    0.1000
     51 H51        -3.4684    2.5750   51.1769 H       1  ZINC000952280524    0.1000
     52 H52       -10.9449   -0.6189   52.7952 H       1  ZINC000952280524    0.0700
     53 H53        -9.8175   -1.9766   52.5446 H       1  ZINC000952280524    0.0900
     54 H54        -9.4032   -2.1329   54.9530 H       1  ZINC000952280524    0.0700
     55 H55       -11.1599   -2.1859   54.6673 H       1  ZINC000952280524    0.0800
     56 H56       -11.5513    1.1986   57.3244 H       1  ZINC000952280524    0.0700
     57 H57       -10.0488    0.8562   58.2355 H       1  ZINC000952280524    0.0800
@<TRIPOS>BOND
     1     1     2    1
     2     1    27    1
     3     1    28    1
     4     1    29    1
     5     2     3    1
     6     2     4    1
     7     2     5    1
     8     3    30    1
     9     3    31    1
    10     3    32    1
    11     4    33    1
    12     5     6    1
    13     5    34    1
    14     5    35    1
    15     6     7    2
    16     6     8   am
    17     8    26    1
    18     8     9    1
    19     9    10    1
    20     9    36    1
    21     9    37    1
    22    10    11    1
    23    10    38    1
    24    10    39    1
    25    11    12    1
    26    11    13    1
    27    11    26    1
    28    13    25    1
    29    13    14    1
    30    13    40    1
    31    14    15    1
    32    14    41    1
    33    14    42    1
    34    15    16    1
    35    15    43    1
    36    15    44    1
    37    16    17   am
    38    16    24    1
    39    17    18    2
    40    17    19    1
    41    19    20    2
    42    19    45    1
    43    20    21    1
    44    20    46    1
    45    21    23    1
    46    21    22    1
    47    21    47    1
    48    22    23    1
    49    22    48    1
    50    22    49    1
    51    23    50    1
    52    23    51    1
    53    24    25    1
    54    24    52    1
    55    24    53    1
    56    25    54    1
    57    25    55    1
    58    26    56    1
    59    26    57    1
@<TRIPOS>SUBSTRUCTURE
     1 ZINC000952280524        1 TEMP              0 ****  ****    0 ROOT


##########                                Name:    ZINC001127302705
##########                DOCK_Rotatable_Bonds:                   9
##########                         Heavy_Atoms:                  28
##########                    Molecular_Weight:             398.892
##########                DOCK_Rotatable_Bonds:                   9
##########                       Formal_Charge:          -0.0200002
##########                     HBond_Acceptors:                   7
##########                        HBond_Donors:                   1
##########                         Heavy_Atoms:                  28
##########                          Grid_Score:          -31.166183
##########                     Grid_vdw_energy:          -29.658035
##########                      Grid_es_energy:           -1.508149
##########           Internal_energy_repulsive:           25.480543

@<TRIPOS>MOLECULE
ZINC001127302705
 51 53 1 0 0
SMALL
USER_CHARGES


@<TRIPOS>ATOM
      1 C1        -10.4283    2.7998   60.9415 C.3     1  ZINC001127302705   -0.1500
      2 C2        -10.7570    1.3562   61.3276 C.3     1  ZINC001127302705   -0.1400
      3 C3        -10.1486    0.4018   60.2981 C.3     1  ZINC001127302705    0.1800
      4 C4         -9.4413   -0.7456   61.0220 C.3     1  ZINC001127302705   -0.1600
      5 C5        -11.2576   -0.1631   59.4082 C.3     1  ZINC001127302705    0.0700
      6 O6        -11.4520   -1.5463   59.7098 O.3     1  ZINC001127302705   -0.2800
      7 C7        -12.1261   -2.2875   58.7945 C.ar    1  ZINC001127302705    0.3400
      8 N8        -11.6241   -2.4453   57.5816 N.ar    1  ZINC001127302705   -0.5300
      9 C9        -12.2465   -3.1582   56.6616 C.ar    1  ZINC001127302705    0.1400
     10 C10       -13.4536   -3.7690   56.9358 C.ar    1  ZINC001127302705   -0.2000
     11 C11       -14.0151   -3.6281   58.1975 C.ar    1  ZINC001127302705   -0.0300
     12 C12       -13.3353   -2.8787   59.1429 C.ar    1  ZINC001127302705   -0.1100
     13 Cl13      -13.9903   -2.6691   60.7368 Cl      1  ZINC001127302705   -0.0400
     14 N14        -9.1811    1.1276   59.4712 N.am    1  ZINC001127302705   -0.7100
     15 C15        -8.5675    0.5026   58.4467 C.2     1  ZINC001127302705    0.6200
     16 O16        -8.8180   -0.6628   58.2078 O.2     1  ZINC001127302705   -0.5200
     17 C17        -7.5909    1.2338   57.6141 C.2     1  ZINC001127302705   -0.0200
     18 N18        -6.8525    2.2593   57.9892 N.2     1  ZINC001127302705   -0.2500
     19 N19        -6.1133    2.6505   57.0141 N.pl3   1  ZINC001127302705   -0.2800
     20 C20        -5.1671    3.7672   57.0756 C.3     1  ZINC001127302705    0.1600
     21 C21        -3.8185    3.2591   57.5160 C.ar    1  ZINC001127302705   -0.1200
     22 C22        -2.8969    2.8393   56.5751 C.ar    1  ZINC001127302705   -0.1000
     23 C23        -1.6599    2.3733   56.9791 C.ar    1  ZINC001127302705   -0.1200
     24 C24        -1.3441    2.3273   58.3241 C.ar    1  ZINC001127302705   -0.1100
     25 C25        -2.2653    2.7479   59.2651 C.ar    1  ZINC001127302705   -0.1200
     26 C26        -3.5008    3.2181   58.8607 C.ar    1  ZINC001127302705   -0.0800
     27 C27        -6.3337    1.8841   55.9243 C.2     1  ZINC001127302705   -0.0200
     28 C28        -7.2655    0.9627   56.2639 C.2     1  ZINC001127302705   -0.1800
     29 H29       -10.8423    3.0157   59.9565 H       1  ZINC001127302705    0.0500
     30 H30       -10.8617    3.4796   61.6749 H       1  ZINC001127302705    0.0600
     31 H31        -9.3467    2.9323   60.9179 H       1  ZINC001127302705    0.0500
     32 H32       -10.3429    1.1402   62.3125 H       1  ZINC001127302705    0.0900
     33 H33       -11.8387    1.2236   61.3511 H       1  ZINC001127302705    0.0800
     34 H34       -10.1610   -1.2857   61.6372 H       1  ZINC001127302705    0.0700
     35 H35        -9.0078   -1.4256   60.2886 H       1  ZINC001127302705    0.0500
     36 H36        -8.6511   -0.3432   61.6559 H       1  ZINC001127302705    0.0800
     37 H37       -12.1834    0.3823   59.5912 H       1  ZINC001127302705    0.0800
     38 H38       -10.9735   -0.0559   58.3615 H       1  ZINC001127302705    0.0700
     39 H39       -11.8056   -3.2649   55.6814 H       1  ZINC001127302705    0.1700
     40 H40       -13.9561   -4.3499   56.1766 H       1  ZINC001127302705    0.1500
     41 H41       -14.9586   -4.0957   58.4377 H       1  ZINC001127302705    0.1500
     42 H42        -8.9822    2.0576   59.6610 H       1  ZINC001127302705    0.4100
     43 H43        -5.0793    4.2238   56.0898 H       1  ZINC001127302705    0.1000
     44 H44        -5.5265    4.5090   57.7889 H       1  ZINC001127302705    0.1100
     45 H45        -3.1436    2.8753   55.5242 H       1  ZINC001127302705    0.1200
     46 H46        -0.9401    2.0447   56.2439 H       1  ZINC001127302705    0.1300
     47 H47        -0.3779    1.9625   58.6399 H       1  ZINC001127302705    0.1200
     48 H48        -2.0188    2.7117   60.3159 H       1  ZINC001127302705    0.1300
     49 H49        -4.2205    3.5466   59.5958 H       1  ZINC001127302705    0.1300
     50 H50        -5.8527    1.9844   54.9626 H       1  ZINC001127302705    0.1800
     51 H51        -7.6788    0.1884   55.6347 H       1  ZINC001127302705    0.1600
@<TRIPOS>BOND
     1     1     2    1
     2     1    29    1
     3     1    30    1
     4     1    31    1
     5     2     3    1
     6     2    32    1
     7     2    33    1
     8     3     4    1
     9     3     5    1
    10     3    14    1
    11     4    34    1
    12     4    35    1
    13     4    36    1
    14     5     6    1
    15     5    37    1
    16     5    38    1
    17     6     7    1
    18     7    12   ar
    19     7     8   ar
    20     8     9   ar
    21     9    10   ar
    22     9    39    1
    23    10    11   ar
    24    10    40    1
    25    11    12   ar
    26    11    41    1
    27    12    13    1
    28    14    15   am
    29    14    42    1
    30    15    16    2
    31    15    17    1
    32    17    28    1
    33    17    18    2
    34    18    19    1
    35    19    20    1
    36    19    27    1
    37    20    21    1
    38    20    43    1
    39    20    44    1
    40    21    26   ar
    41    21    22   ar
    42    22    23   ar
    43    22    45    1
    44    23    24   ar
    45    23    46    1
    46    24    25   ar
    47    24    47    1
    48    25    26   ar
    49    25    48    1
    50    26    49    1
    51    27    28    2
    52    27    50    1
    53    28    51    1
@<TRIPOS>SUBSTRUCTURE
     1 ZINC001127302705        1 TEMP              0 ****  ****    0 ROOT


##########                                Name:    ZINC000033150761
##########                DOCK_Rotatable_Bonds:                   7
##########                         Heavy_Atoms:                  29
##########                    Molecular_Weight:             413.407
##########                DOCK_Rotatable_Bonds:                   7
##########                       Formal_Charge:          0.00999993
##########                     HBond_Acceptors:                  10
##########                        HBond_Donors:                   1
##########                         Heavy_Atoms:                  29
##########                          Grid_Score:          -31.138725
##########                     Grid_vdw_energy:          -29.933956
##########                      Grid_es_energy:           -1.204769
##########           Internal_energy_repulsive:            6.524804

@<TRIPOS>MOLECULE
ZINC000033150761
 42 45 1 0 0
SMALL
USER_CHARGES


@<TRIPOS>ATOM
      1 O1         -9.8483   -2.6914   56.1292 O.2     1  ZINC000033150761   -0.5000
      2 C2        -10.6440   -1.8432   56.4733 C.2     1  ZINC000033150761    0.5200
      3 C3        -11.5443   -2.0902   57.6562 C.3     1  ZINC000033150761   -0.1300
      4 C4        -10.7276   -2.6910   58.8021 C.3     1  ZINC000033150761   -0.0100
      5 C5        -10.1315   -1.5817   59.6297 C.2     1  ZINC000033150761    0.1800
      6 N6        -10.7339   -0.9088   60.5782 N.2     1  ZINC000033150761   -0.4400
      7 C7         -9.8182   -0.0245   61.0339 C.2     1  ZINC000033150761    0.2200
      8 C8        -10.0174    0.9711   62.1173 C.ar    1  ZINC000033150761    0.1900
      9 C9         -9.0390    1.9309   62.3610 C.ar    1  ZINC000033150761   -0.1300
     10 C10        -9.2386    2.8532   63.3749 C.ar    1  ZINC000033150761   -0.0700
     11 C11       -10.4117    2.7834   64.1113 C.ar    1  ZINC000033150761   -0.1500
     12 C12       -11.3415    1.8027   63.8145 C.ar    1  ZINC000033150761    0.1100
     13 N13       -11.1285    0.9417   62.8411 N.ar    1  ZINC000033150761   -0.4500
     14 N14        -8.7245   -0.2103   60.3423 N.2     1  ZINC000033150761   -0.3600
     15 O15        -8.8867   -1.1033   59.5377 O.3     1  ZINC000033150761    0.0900
     16 N16       -10.7192   -0.6774   55.8011 N.am    1  ZINC000033150761   -0.6200
     17 C17        -9.8890   -0.4496   54.7103 C.2     1  ZINC000033150761    0.2700
     18 N18        -8.9003    0.3888   54.6833 N.2     1  ZINC000033150761   -0.5000
     19 C19        -8.2144    0.4743   53.5521 C.2     1  ZINC000033150761    0.1200
     20 C20        -7.0615    1.3937   53.3916 C.ar    1  ZINC000033150761    0.0000
     21 C21        -6.9745    2.5474   54.1683 C.ar    1  ZINC000033150761   -0.0800
     22 C22        -5.9001    3.4006   54.0168 C.ar    1  ZINC000033150761   -0.1200
     23 C23        -4.9085    3.1124   53.0946 C.ar    1  ZINC000033150761    0.0700
     24 F24        -3.8588    3.9505   52.9499 F       1  ZINC000033150761   -0.1300
     25 C25        -4.9896    1.9646   52.3187 C.ar    1  ZINC000033150761    0.0700
     26 F26        -4.0193    1.6872   51.4204 F       1  ZINC000033150761   -0.1300
     27 C27        -6.0591    1.1030   52.4676 C.ar    1  ZINC000033150761   -0.1000
     28 C28        -8.6358   -0.3302   52.5601 C.2     1  ZINC000033150761   -0.2800
     29 S29       -10.0110   -1.2600   53.1516 S.3     1  ZINC000033150761    0.2200
     30 H30       -11.9858   -1.1476   57.9801 H       1  ZINC000033150761    0.1200
     31 H31       -12.3360   -2.7834   57.3719 H       1  ZINC000033150761    0.1200
     32 H32       -11.3763   -3.3034   59.4284 H       1  ZINC000033150761    0.1300
     33 H33        -9.9283   -3.3092   58.3933 H       1  ZINC000033150761    0.1200
     34 H34        -8.1367    1.9559   61.7679 H       1  ZINC000033150761    0.1400
     35 H35        -8.4973    3.6093   63.5875 H       1  ZINC000033150761    0.1500
     36 H36       -10.5976    3.4875   64.9089 H       1  ZINC000033150761    0.1400
     37 H37       -12.2562    1.7452   64.3858 H       1  ZINC000033150761    0.1700
     38 H38       -11.3529    0.0025   56.0788 H       1  ZINC000033150761    0.4300
     39 H39        -7.7473    2.7740   54.8878 H       1  ZINC000033150761    0.1400
     40 H40        -5.8330    4.2950   54.6185 H       1  ZINC000033150761    0.1500
     41 H41        -6.1224    0.2096   51.8639 H       1  ZINC000033150761    0.1600
     42 H42        -8.2032   -0.3981   51.5730 H       1  ZINC000033150761    0.1800
@<TRIPOS>BOND
     1     1     2    2
     2     2     3    1
     3     2    16   am
     4     3     4    1
     5     3    30    1
     6     3    31    1
     7     4     5    1
     8     4    32    1
     9     4    33    1
    10     5    15    1
    11     5     6    2
    12     6     7    1
    13     7     8    1
    14     7    14    2
    15     8    13   ar
    16     8     9   ar
    17     9    10   ar
    18     9    34    1
    19    10    11   ar
    20    10    35    1
    21    11    12   ar
    22    11    36    1
    23    12    13   ar
    24    12    37    1
    25    14    15    1
    26    16    17    1
    27    16    38    1
    28    17    29    1
    29    17    18    2
    30    18    19    1
    31    19    20    1
    32    19    28    2
    33    20    27   ar
    34    20    21   ar
    35    21    22   ar
    36    21    39    1
    37    22    23   ar
    38    22    40    1
    39    23    24    1
    40    23    25   ar
    41    25    26    1
    42    25    27   ar
    43    27    41    1
    44    28    29    1
    45    28    42    1
@<TRIPOS>SUBSTRUCTURE
     1 ZINC000033150761        1 TEMP              0 ****  ****    0 ROOT


##########                                Name:    ZINC000110375116
##########                DOCK_Rotatable_Bonds:                  10
##########                         Heavy_Atoms:                  27
##########                    Molecular_Weight:             396.511
##########                DOCK_Rotatable_Bonds:                  10
##########                       Formal_Charge:        -2.23517e-07
##########                     HBond_Acceptors:                   9
##########                        HBond_Donors:                   0
##########                         Heavy_Atoms:                  27
##########                          Grid_Score:          -31.127569
##########                     Grid_vdw_energy:          -32.338173
##########                      Grid_es_energy:            1.210604
##########           Internal_energy_repulsive:           29.990141

@<TRIPOS>MOLECULE
ZINC000110375116
 55 56 1 0 0
SMALL
USER_CHARGES


@<TRIPOS>ATOM
      1 C1        -14.8800   -1.2654   60.0858 C.3     1  ZINC000110375116   -0.1700
      2 C2        -14.4904   -2.7432   60.1588 C.3     1  ZINC000110375116    0.1000
      3 N3        -13.7245   -3.1059   58.9637 N.am    1  ZINC000110375116   -0.6200
      4 C4        -14.4046   -3.7000   57.8103 C.3     1  ZINC000110375116    0.1100
      5 C5        -14.8362   -2.5928   56.8466 C.3     1  ZINC000110375116   -0.1700
      6 C6        -12.3942   -2.8930   58.9255 C.2     1  ZINC000110375116    0.5100
      7 O7        -11.7605   -3.1919   57.9356 O.2     1  ZINC000110375116   -0.5300
      8 C8        -11.6943   -2.2834   60.1128 C.3     1  ZINC000110375116   -0.1400
      9 C9        -10.2847   -1.8490   59.7061 C.3     1  ZINC000110375116   -0.0900
     10 C10       -10.3723   -0.6267   58.7900 C.3     1  ZINC000110375116   -0.1400
     11 C11        -8.9964   -0.0426   58.5988 C.2     1  ZINC000110375116    0.5200
     12 O12        -8.0461   -0.5278   59.1755 O.2     1  ZINC000110375116   -0.5300
     13 N13        -8.8217    1.0190   57.7870 N.am    1  ZINC000110375116   -0.6200
     14 C14        -7.4849    1.5963   57.5878 C.3     1  ZINC000110375116    0.0900
     15 C15        -7.1799    1.6188   56.0849 C.3     1  ZINC000110375116    0.1000
     16 N16        -8.3226    2.2195   55.3827 N.am    1  ZINC000110375116   -1.0000
     17 S17        -8.1078    3.5233   54.3845 S.o2    1  ZINC000110375116    2.7000
     18 O18        -9.3601    3.7572   53.7549 O.2     1  ZINC000110375116   -0.9400
     19 O19        -7.4271    4.5075   55.1507 O.2     1  ZINC000110375116   -0.9500
     20 C20        -6.9957    3.0273   53.1109 C.ar    1  ZINC000110375116   -0.7400
     21 C21        -7.4750    2.4411   51.9497 C.ar    1  ZINC000110375116    0.0200
     22 C22        -6.5631    2.0672   50.9741 C.ar    1  ZINC000110375116   -0.1900
     23 C23        -5.2166    2.2899   51.1903 C.ar    1  ZINC000110375116    0.1500
     24 N24        -4.7964    2.8503   52.3077 N.ar    1  ZINC000110375116   -0.4900
     25 C25        -5.6349    3.2232   53.2544 C.ar    1  ZINC000110375116    0.2000
     26 C26        -9.6594    1.6423   55.5820 C.3     1  ZINC000110375116    0.1000
     27 C27        -9.9636    1.6162   57.0805 C.3     1  ZINC000110375116    0.1000
     28 H28       -15.4499   -0.9956   60.9749 H       1  ZINC000110375116    0.0700
     29 H29       -13.9791   -0.6544   60.0322 H       1  ZINC000110375116    0.0600
     30 H30       -15.4888   -1.0936   59.1981 H       1  ZINC000110375116    0.0600
     31 H31       -13.8816   -2.9150   61.0465 H       1  ZINC000110375116    0.0800
     32 H32       -15.3914   -3.3543   60.2123 H       1  ZINC000110375116    0.0800
     33 H33       -13.7250   -4.3819   57.2992 H       1  ZINC000110375116    0.0800
     34 H34       -15.2830   -4.2492   58.1495 H       1  ZINC000110375116    0.0800
     35 H35       -15.3422   -3.0348   55.9883 H       1  ZINC000110375116    0.0700
     36 H36       -15.5159   -1.9109   57.3576 H       1  ZINC000110375116    0.0500
     37 H37       -13.9578   -2.0438   56.5073 H       1  ZINC000110375116    0.0600
     38 H38       -12.2558   -1.4162   60.4598 H       1  ZINC000110375116    0.0900
     39 H39       -11.6305   -3.0195   60.9142 H       1  ZINC000110375116    0.0900
     40 H40        -9.7116   -1.5946   60.5976 H       1  ZINC000110375116    0.0800
     41 H41        -9.7915   -2.6646   59.1775 H       1  ZINC000110375116    0.0800
     42 H42       -10.7777   -0.9254   57.8234 H       1  ZINC000110375116    0.1000
     43 H43       -11.0245    0.1204   59.2424 H       1  ZINC000110375116    0.1000
     44 H44        -7.4631    2.6127   57.9808 H       1  ZINC000110375116    0.0800
     45 H45        -6.7426    0.9863   58.1027 H       1  ZINC000110375116    0.1000
     46 H46        -6.2847    2.2132   55.9022 H       1  ZINC000110375116    0.1100
     47 H47        -7.0251    0.6007   55.7277 H       1  ZINC000110375116    0.0800
     48 H48        -8.5334    2.2791   51.8083 H       1  ZINC000110375116    0.1500
     49 H49        -6.9010    1.6076   50.0571 H       1  ZINC000110375116    0.1500
     50 H50        -4.4999    2.0012   50.4357 H       1  ZINC000110375116    0.1700
     51 H51        -5.2536    3.6791   54.1561 H       1  ZINC000110375116    0.1700
     52 H52       -10.4017    2.2522   55.0671 H       1  ZINC000110375116    0.1100
     53 H53        -9.6812    0.6258   55.1889 H       1  ZINC000110375116    0.0800
     54 H54       -10.8590    1.0215   57.2617 H       1  ZINC000110375116    0.1100
     55 H55       -10.1181    2.6335   57.4402 H       1  ZINC000110375116    0.0800
@<TRIPOS>BOND
     1     1     2    1
     2     1    28    1
     3     1    29    1
     4     1    30    1
     5     2     3    1
     6     2    31    1
     7     2    32    1
     8     3     4    1
     9     3     6   am
    10     4     5    1
    11     4    33    1
    12     4    34    1
    13     5    35    1
    14     5    36    1
    15     5    37    1
    16     6     7    2
    17     6     8    1
    18     8     9    1
    19     8    38    1
    20     8    39    1
    21     9    10    1
    22     9    40    1
    23     9    41    1
    24    10    11    1
    25    10    42    1
    26    10    43    1
    27    11    12    2
    28    11    13   am
    29    13    27    1
    30    13    14    1
    31    14    15    1
    32    14    44    1
    33    14    45    1
    34    15    16    1
    35    15    46    1
    36    15    47    1
    37    16    17   am
    38    16    26    1
    39    17    18    2
    40    17    19    2
    41    17    20    1
    42    20    25   ar
    43    20    21   ar
    44    21    22   ar
    45    21    48    1
    46    22    23   ar
    47    22    49    1
    48    23    24   ar
    49    23    50    1
    50    24    25   ar
    51    25    51    1
    52    26    27    1
    53    26    52    1
    54    26    53    1
    55    27    54    1
    56    27    55    1
@<TRIPOS>SUBSTRUCTURE
     1 ZINC000110375116        1 TEMP              0 ****  ****    0 ROOT


##########                                Name:    ZINC000807524472
##########                DOCK_Rotatable_Bonds:                   9
##########                         Heavy_Atoms:                  28
##########                    Molecular_Weight:             410.534
##########                DOCK_Rotatable_Bonds:                   9
##########                       Formal_Charge:           0.0200006
##########                     HBond_Acceptors:                   8
##########                        HBond_Donors:                   0
##########                         Heavy_Atoms:                  28
##########                          Grid_Score:          -31.114590
##########                     Grid_vdw_energy:          -30.535086
##########                      Grid_es_energy:           -0.579504
##########           Internal_energy_repulsive:           17.179865

@<TRIPOS>MOLECULE
ZINC000807524472
 58 60 1 0 0
SMALL
USER_CHARGES


@<TRIPOS>ATOM
      1 C1         -1.2813    2.5623   58.1351 C.3     1  ZINC000807524472   -0.1500
      2 C2         -1.8796    3.8227   57.5071 C.3     1  ZINC000807524472    0.0600
      3 O3         -3.2798    3.8758   57.7872 O.3     1  ZINC000807524472   -0.3800
      4 C4         -4.0167    2.7614   57.2799 C.3     1  ZINC000807524472    0.0600
      5 C5         -5.4991    2.9341   57.6168 C.3     1  ZINC000807524472    0.0700
      6 O6         -6.2393    1.7747   57.1520 O.3     1  ZINC000807524472   -0.3500
      7 C7         -7.5692    1.7698   57.3705 C.2     1  ZINC000807524472    0.5000
      8 O8         -8.0765    2.6411   58.0490 O.2     1  ZINC000807524472   -0.4600
      9 C9         -8.4076    0.7087   56.7870 C.ar    1  ZINC000807524472   -0.1200
     10 C10        -8.8792   -0.3352   57.5877 C.ar    1  ZINC000807524472    0.0400
     11 C11        -9.6634   -1.3242   57.0357 C.ar    1  ZINC000807524472   -0.7000
     12 S12       -10.2570   -2.6387   58.0479 S.o2    1  ZINC000807524472    2.6900
     13 O13       -10.2940   -3.7952   57.2229 O.2     1  ZINC000807524472   -0.9500
     14 O14        -9.5220   -2.5735   59.2622 O.2     1  ZINC000807524472   -0.9500
     15 N15       -11.8290   -2.2890   58.4335 N.am    1  ZINC000807524472   -0.9900
     16 C16       -12.2372   -2.1247   59.8353 C.3     1  ZINC000807524472    0.1200
     17 C17       -12.9439   -0.7742   59.9882 C.3     1  ZINC000807524472   -0.1400
     18 C18       -14.0957   -0.6890   58.9840 C.3     1  ZINC000807524472   -0.1200
     19 C19       -13.5420   -0.7861   57.5607 C.3     1  ZINC000807524472   -0.1400
     20 C20       -12.8409   -2.1309   57.3799 C.3     1  ZINC000807524472    0.1200
     21 C21        -9.9881   -1.2908   55.6889 C.ar    1  ZINC000807524472    0.0200
     22 C22        -9.5302   -0.2673   54.8846 C.ar    1  ZINC000807524472   -0.1800
     23 C23        -8.7430    0.7425   55.4235 C.ar    1  ZINC000807524472    0.2000
     24 N24        -8.2813    1.7735   54.6166 N.3     1  ZINC000807524472   -0.4800
     25 C25        -7.5263    1.2417   53.4533 C.3     1  ZINC000807524472    0.0400
     26 C26        -7.5604    2.4149   52.4420 C.3     1  ZINC000807524472   -0.1200
     27 C27        -8.9767    3.0018   52.6411 C.3     1  ZINC000807524472   -0.1300
     28 C28        -9.4070    2.5460   54.0477 C.3     1  ZINC000807524472    0.0400
     29 H29        -1.7691    1.6815   57.7173 H       1  ZINC000807524472    0.0600
     30 H30        -0.2133    2.5218   57.9216 H       1  ZINC000807524472    0.0700
     31 H31        -1.4355    2.5855   59.2139 H       1  ZINC000807524472    0.0700
     32 H32        -1.3919    4.7034   57.9250 H       1  ZINC000807524472    0.0500
     33 H33        -1.7254    3.7994   56.4283 H       1  ZINC000807524472    0.0500
     34 H34        -3.8939    2.7068   56.1982 H       1  ZINC000807524472    0.0600
     35 H35        -3.6453    1.8430   57.7346 H       1  ZINC000807524472    0.0700
     36 H36        -5.6174    3.0321   58.6959 H       1  ZINC000807524472    0.0900
     37 H37        -5.8812    3.8296   57.1265 H       1  ZINC000807524472    0.0800
     38 H38        -8.6290   -0.3665   58.6378 H       1  ZINC000807524472    0.1600
     39 H39       -12.9197   -2.9278   60.1135 H       1  ZINC000807524472    0.0800
     40 H40       -11.3570   -2.1514   60.4777 H       1  ZINC000807524472    0.0900
     41 H41       -13.3365   -0.6815   61.0007 H       1  ZINC000807524472    0.0800
     42 H42       -12.2346    0.0312   59.7972 H       1  ZINC000807524472    0.0700
     43 H43       -14.7918   -1.5093   59.1596 H       1  ZINC000807524472    0.0700
     44 H44       -14.6157    0.2609   59.1074 H       1  ZINC000807524472    0.0700
     45 H45       -14.3603   -0.7021   56.8454 H       1  ZINC000807524472    0.0800
     46 H46       -12.8271    0.0193   57.3926 H       1  ZINC000807524472    0.0700
     47 H47       -12.3605   -2.1640   56.4021 H       1  ZINC000807524472    0.0900
     48 H48       -13.5705   -2.9368   57.4583 H       1  ZINC000807524472    0.0800
     49 H49       -10.6035   -2.0711   55.2659 H       1  ZINC000807524472    0.1500
     50 H50        -9.7876   -0.2490   53.8359 H       1  ZINC000807524472    0.1400
     51 H51        -6.5000    1.0067   53.7355 H       1  ZINC000807524472    0.0900
     52 H52        -8.0236    0.3637   53.0408 H       1  ZINC000807524472    0.0500
     53 H53        -6.7984    3.1556   52.6847 H       1  ZINC000807524472    0.0800
     54 H54        -7.4340    2.0496   51.4229 H       1  ZINC000807524472    0.0800
     55 H55        -8.9461    4.0902   52.5890 H       1  ZINC000807524472    0.0800
     56 H56        -9.6595    2.6055   51.8896 H       1  ZINC000807524472    0.0700
     57 H57       -10.2931    1.9149   53.9787 H       1  ZINC000807524472    0.0500
     58 H58        -9.6143    3.4149   54.6723 H       1  ZINC000807524472    0.0900
@<TRIPOS>BOND
     1     1     2    1
     2     1    29    1
     3     1    30    1
     4     1    31    1
     5     2     3    1
     6     2    32    1
     7     2    33    1
     8     3     4    1
     9     4     5    1
    10     4    34    1
    11     4    35    1
    12     5     6    1
    13     5    36    1
    14     5    37    1
    15     6     7    1
    16     7     8    2
    17     7     9    1
    18     9    23   ar
    19     9    10   ar
    20    10    11   ar
    21    10    38    1
    22    11    12    1
    23    11    21   ar
    24    12    13    2
    25    12    14    2
    26    12    15   am
    27    15    20    1
    28    15    16    1
    29    16    17    1
    30    16    39    1
    31    16    40    1
    32    17    18    1
    33    17    41    1
    34    17    42    1
    35    18    19    1
    36    18    43    1
    37    18    44    1
    38    19    20    1
    39    19    45    1
    40    19    46    1
    41    20    47    1
    42    20    48    1
    43    21    22   ar
    44    21    49    1
    45    22    23   ar
    46    22    50    1
    47    23    24    1
    48    24    28    1
    49    24    25    1
    50    25    26    1
    51    25    51    1
    52    25    52    1
    53    26    27    1
    54    26    53    1
    55    26    54    1
    56    27    28    1
    57    27    55    1
    58    27    56    1
    59    28    57    1
    60    28    58    1
@<TRIPOS>SUBSTRUCTURE
     1 ZINC000807524472        1 TEMP              0 ****  ****    0 ROOT


##########                                Name:    ZINC000609484313
##########                DOCK_Rotatable_Bonds:                  10
##########                         Heavy_Atoms:                  26
##########                    Molecular_Weight:             361.487
##########                DOCK_Rotatable_Bonds:                  10
##########                       Formal_Charge:          -0.0200004
##########                     HBond_Acceptors:                   7
##########                        HBond_Donors:                   1
##########                         Heavy_Atoms:                  26
##########                          Grid_Score:          -31.084522
##########                     Grid_vdw_energy:          -30.505728
##########                      Grid_es_energy:           -0.578794
##########           Internal_energy_repulsive:           34.974621

@<TRIPOS>MOLECULE
ZINC000609484313
 57 58 1 0 0
SMALL
USER_CHARGES


@<TRIPOS>ATOM
      1 C1        -14.7689   -2.3601   57.1471 C.3     1  ZINC000609484313   -0.1500
      2 C2        -13.8383   -3.4233   57.7338 C.3     1  ZINC000609484313   -0.1300
      3 C3        -12.4311   -3.2415   57.1614 C.3     1  ZINC000609484313   -0.1100
      4 C4        -11.8443   -1.9197   57.6607 C.3     1  ZINC000609484313   -0.1100
      5 C5        -10.3182   -1.9705   57.5647 C.3     1  ZINC000609484313    0.0800
      6 H6         -9.9630   -2.9339   57.9304 H       1  ZINC000609484313    0.1200
      7 C7         -9.8989   -1.7928   56.1283 C.2     1  ZINC000609484313    0.4900
      8 O8         -9.9906   -2.7189   55.3507 O.2     1  ZINC000609484313   -0.5000
      9 N9         -9.4218   -0.6045   55.7076 N.am    1  ZINC000609484313   -0.6300
     10 C10        -9.0353   -0.4394   54.3774 C.2     1  ZINC000609484313    0.2400
     11 N11        -9.5316   -1.0514   53.3343 N.2     1  ZINC000609484313   -0.3900
     12 O12        -8.9892   -0.6969   52.3134 O.3     1  ZINC000609484313    0.1000
     13 C13        -8.0384    0.2191   52.5483 C.2     1  ZINC000609484313   -0.0200
     14 C14        -7.1583    0.8867   51.5232 C.3     1  ZINC000609484313   -0.0800
     15 C15        -8.0279    0.4316   53.8840 C.2     1  ZINC000609484313   -0.2300
     16 N16        -9.7401   -0.8940   58.3803 N.3     1  ZINC000609484313   -0.5000
     17 C17        -9.4399   -1.3660   59.7392 C.3     1  ZINC000609484313    0.0400
     18 C18        -8.7681   -0.2412   60.5303 C.3     1  ZINC000609484313    0.0500
     19 N19        -9.6578    0.9278   60.5664 N.3     1  ZINC000609484313   -0.5100
     20 C20        -9.0798    2.0043   61.3820 C.3     1  ZINC000609484313    0.1800
     21 H21        -8.1611    1.6517   61.8508 H       1  ZINC000609484313    0.1200
     22 C22        -8.7798    3.1625   60.5244 C.1     1  ZINC000609484313    0.1700
     23 N23        -8.5482    4.0563   59.8626 N.1     1  ZINC000609484313   -0.4200
     24 C24       -10.0792    2.4167   62.4646 C.3     1  ZINC000609484313   -0.0800
     25 C25       -11.3829    2.8743   61.8075 C.3     1  ZINC000609484313   -0.1400
     26 C26       -10.3609    1.2233   63.3798 C.3     1  ZINC000609484313   -0.1500
     27 C27        -9.9580    1.3998   59.2075 C.3     1  ZINC000609484313    0.0500
     28 C28       -10.6299    0.2751   58.4164 C.3     1  ZINC000609484313    0.0400
     29 H29       -14.3968   -1.3688   57.4060 H       1  ZINC000609484313    0.0500
     30 H30       -14.8015   -2.4641   56.0626 H       1  ZINC000609484313    0.0500
     31 H31       -15.7714   -2.4897   57.5550 H       1  ZINC000609484313    0.0500
     32 H32       -13.8057   -3.3193   58.8183 H       1  ZINC000609484313    0.0600
     33 H33       -14.2104   -4.4147   57.4750 H       1  ZINC000609484313    0.0600
     34 H34       -11.7971   -4.0664   57.4865 H       1  ZINC000609484313    0.0800
     35 H35       -12.4808   -3.2286   56.0725 H       1  ZINC000609484313    0.0600
     36 H36       -12.2198   -1.1006   57.0474 H       1  ZINC000609484313    0.0700
     37 H37       -12.1380   -1.7607   58.6983 H       1  ZINC000609484313    0.0800
     38 H38        -9.3474    0.1359   56.3297 H       1  ZINC000609484313    0.4200
     39 H39        -7.4074    0.5112   50.5308 H       1  ZINC000609484313    0.0800
     40 H40        -7.3176    1.9646   51.5545 H       1  ZINC000609484313    0.0900
     41 H41        -6.1135    0.6672   51.7432 H       1  ZINC000609484313    0.0900
     42 H42        -7.3951    1.1026   54.4458 H       1  ZINC000609484313    0.1900
     43 H43       -10.3655   -1.6572   60.2357 H       1  ZINC000609484313    0.0800
     44 H44        -8.7697   -2.2240   59.6863 H       1  ZINC000609484313    0.0800
     45 H45        -8.5707   -0.5796   61.5475 H       1  ZINC000609484313    0.0900
     46 H46        -7.8290    0.0313   60.0487 H       1  ZINC000609484313    0.0400
     47 H47        -9.6617    3.2344   63.0519 H       1  ZINC000609484313    0.0800
     48 H48       -11.8004    2.0565   61.2200 H       1  ZINC000609484313    0.0600
     49 H49       -12.0950    3.1680   62.5787 H       1  ZINC000609484313    0.0500
     50 H50       -11.1823    3.7245   61.1555 H       1  ZINC000609484313    0.0700
     51 H51       -11.1413    1.4887   64.0928 H       1  ZINC000609484313    0.0700
     52 H52       -10.6901    0.3750   62.7797 H       1  ZINC000609484313    0.0600
     53 H53        -9.4519    0.9562   63.9186 H       1  ZINC000609484313    0.0500
     54 H54       -10.6282    2.2579   59.2603 H       1  ZINC000609484313    0.0900
     55 H55        -9.0324    1.6911   58.7109 H       1  ZINC000609484313    0.0400
     56 H56       -10.8272    0.6134   57.3993 H       1  ZINC000609484313    0.0800
     57 H57       -11.5690    0.0025   58.8980 H       1  ZINC000609484313    0.0800
@<TRIPOS>BOND
     1     1     2    1
     2     1    29    1
     3     1    30    1
     4     1    31    1
     5     2     3    1
     6     2    32    1
     7     2    33    1
     8     3     4    1
     9     3    34    1
    10     3    35    1
    11     4     5    1
    12     4    36    1
    13     4    37    1
    14     5     6    1
    15     5     7    1
    16     5    16    1
    17     7     8    2
    18     7     9   am
    19     9    10    1
    20     9    38    1
    21    10    15    1
    22    10    11    2
    23    11    12    1
    24    12    13    1
    25    13    14    1
    26    13    15    2
    27    14    39    1
    28    14    40    1
    29    14    41    1
    30    15    42    1
    31    16    28    1
    32    16    17    1
    33    17    18    1
    34    17    43    1
    35    17    44    1
    36    18    19    1
    37    18    45    1
    38    18    46    1
    39    19    20    1
    40    19    27    1
    41    20    21    1
    42    20    22    1
    43    20    24    1
    44    22    23    3
    45    24    25    1
    46    24    26    1
    47    24    47    1
    48    25    48    1
    49    25    49    1
    50    25    50    1
    51    26    51    1
    52    26    52    1
    53    26    53    1
    54    27    28    1
    55    27    54    1
    56    27    55    1
    57    28    56    1
    58    28    57    1
@<TRIPOS>SUBSTRUCTURE
     1 ZINC000609484313        1 TEMP              0 ****  ****    0 ROOT


##########                                Name:    ZINC000190927708
##########                DOCK_Rotatable_Bonds:                  10
##########                         Heavy_Atoms:                  26
##########                    Molecular_Weight:             358.437
##########                DOCK_Rotatable_Bonds:                  10
##########                       Formal_Charge:           0.0499998
##########                     HBond_Acceptors:                   6
##########                        HBond_Donors:                   1
##########                         Heavy_Atoms:                  26
##########                          Grid_Score:          -31.079954
##########                     Grid_vdw_energy:          -29.671762
##########                      Grid_es_energy:           -1.408192
##########           Internal_energy_repulsive:           23.446922

@<TRIPOS>MOLECULE
ZINC000190927708
 52 53 1 0 0
SMALL
USER_CHARGES


@<TRIPOS>ATOM
      1 C1        -14.6879   -3.3763   59.0756 C.3     1  ZINC000190927708   -0.1500
      2 C2        -13.9898   -2.1580   58.4678 C.3     1  ZINC000190927708   -0.1500
      3 C3        -12.6151   -2.5697   57.9374 C.3     1  ZINC000190927708    0.1000
      4 N4        -11.6796   -1.4521   58.0861 N.am    1  ZINC000190927708   -0.5900
      5 C5        -11.2637   -1.0802   59.3130 C.2     1  ZINC000190927708    0.5300
      6 O6        -11.6652   -1.6696   60.2939 O.2     1  ZINC000190927708   -0.5300
      7 C7        -10.3001    0.0683   59.4659 C.3     1  ZINC000190927708   -0.0800
      8 C8        -10.0637    0.3342   60.9303 C.2     1  ZINC000190927708   -0.1700
      9 C9         -9.0409   -0.2825   61.5723 C.2     1  ZINC000190927708    0.0000
     10 C10        -8.8378   -0.0023   62.9949 C.ar    1  ZINC000190927708   -0.1300
     11 C11        -7.7995   -0.6071   63.7104 C.ar    1  ZINC000190927708   -0.0500
     12 C12        -7.6364   -0.3237   65.0370 C.ar    1  ZINC000190927708   -0.1500
     13 C13        -8.4920    0.5591   65.6811 C.ar    1  ZINC000190927708   -0.0600
     14 C14        -9.5224    1.1665   64.9959 C.ar    1  ZINC000190927708   -0.1600
     15 C15        -9.7077    0.8938   63.6448 C.ar    1  ZINC000190927708    0.1900
     16 N16       -10.7296    1.4874   62.9348 N.am    1  ZINC000190927708   -0.6300
     17 C17       -10.9043    1.2286   61.6270 C.2     1  ZINC000190927708    0.5500
     18 O18       -11.8184    1.7714   61.0308 O.2     1  ZINC000190927708   -0.5300
     19 C19       -11.1961   -0.7389   56.9013 C.3     1  ZINC000190927708    0.1500
     20 H20       -10.4629    0.0096   57.2019 H       1  ZINC000190927708    0.1400
     21 C21       -12.3719   -0.0503   56.2054 C.3     1  ZINC000190927708   -0.1300
     22 C22       -12.1918    1.4671   56.2811 C.3     1  ZINC000190927708   -0.1500
     23 C23       -10.5542   -1.7181   55.9526 C.2     1  ZINC000190927708    0.4500
     24 O24       -10.3195   -2.8462   56.3162 O.2     1  ZINC000190927708   -0.5000
     25 O25       -10.2433   -1.3371   54.7037 O.3     1  ZINC000190927708   -0.3500
     26 C26        -9.1835   -0.3553   54.5585 C.3     1  ZINC000190927708    0.0600
     27 C27        -8.9031   -0.1234   53.0724 C.3     1  ZINC000190927708   -0.1500
     28 H28       -14.0852   -3.7693   59.8944 H       1  ZINC000190927708    0.0600
     29 H29       -15.6672   -3.0830   59.4534 H       1  ZINC000190927708    0.0600
     30 H30       -14.8082   -4.1446   58.3118 H       1  ZINC000190927708    0.0600
     31 H31       -14.5924   -1.7650   57.6489 H       1  ZINC000190927708    0.0800
     32 H32       -13.8695   -1.3896   59.2315 H       1  ZINC000190927708    0.0700
     33 H33       -12.2496   -3.4272   58.5023 H       1  ZINC000190927708    0.0900
     34 H34       -12.6972   -2.8369   56.8838 H       1  ZINC000190927708    0.0900
     35 H35        -9.3548   -0.1841   58.9852 H       1  ZINC000190927708    0.1100
     36 H36       -10.7191    0.9590   58.9978 H       1  ZINC000190927708    0.1200
     37 H37        -8.3905   -0.9654   61.0460 H       1  ZINC000190927708    0.1400
     38 H38        -7.1297   -1.2954   63.2165 H       1  ZINC000190927708    0.1400
     39 H39        -6.8346   -0.7912   65.5895 H       1  ZINC000190927708    0.1300
     40 H40        -8.3492    0.7723   66.7303 H       1  ZINC000190927708    0.1300
     41 H41       -10.1828    1.8520   65.5062 H       1  ZINC000190927708    0.1300
     42 H42       -11.3287    2.1038   63.3843 H       1  ZINC000190927708    0.4200
     43 H43       -12.4081   -0.3604   55.1611 H       1  ZINC000190927708    0.0900
     44 H44       -13.3018   -0.3309   56.7001 H       1  ZINC000190927708    0.0800
     45 H45       -13.0294    1.9577   55.7854 H       1  ZINC000190927708    0.0600
     46 H46       -12.1555    1.7771   57.3254 H       1  ZINC000190927708    0.0600
     47 H47       -11.2619    1.7477   55.7864 H       1  ZINC000190927708    0.0600
     48 H48        -9.4912    0.5826   55.0208 H       1  ZINC000190927708    0.0700
     49 H49        -8.2799   -0.7213   55.0460 H       1  ZINC000190927708    0.0700
     50 H50        -8.5953   -1.0613   52.6101 H       1  ZINC000190927708    0.0700
     51 H51        -9.8067    0.2426   52.5849 H       1  ZINC000190927708    0.0700
     52 H52        -8.1074    0.6136   52.9635 H       1  ZINC000190927708    0.0800
@<TRIPOS>BOND
     1     1     2    1
     2     1    28    1
     3     1    29    1
     4     1    30    1
     5     2     3    1
     6     2    31    1
     7     2    32    1
     8     3     4    1
     9     3    33    1
    10     3    34    1
    11     4     5   am
    12     4    19    1
    13     5     6    2
    14     5     7    1
    15     7     8    1
    16     7    35    1
    17     7    36    1
    18     8    17    1
    19     8     9    2
    20     9    10    1
    21     9    37    1
    22    10    15   ar
    23    10    11   ar
    24    11    12   ar
    25    11    38    1
    26    12    13   ar
    27    12    39    1
    28    13    14   ar
    29    13    40    1
    30    14    15   ar
    31    14    41    1
    32    15    16    1
    33    16    17   am
    34    16    42    1
    35    17    18    2
    36    19    20    1
    37    19    21    1
    38    19    23    1
    39    21    22    1
    40    21    43    1
    41    21    44    1
    42    22    45    1
    43    22    46    1
    44    22    47    1
    45    23    24    2
    46    23    25    1
    47    25    26    1
    48    26    27    1
    49    26    48    1
    50    26    49    1
    51    27    50    1
    52    27    51    1
    53    27    52    1
@<TRIPOS>SUBSTRUCTURE
     1 ZINC000190927708        1 TEMP              0 ****  ****    0 ROOT


##########                                Name:    ZINC000011972961
##########                DOCK_Rotatable_Bonds:                   6
##########                         Heavy_Atoms:                  28
##########                    Molecular_Weight:             397.501
##########                DOCK_Rotatable_Bonds:                   6
##########                       Formal_Charge:                   0
##########                     HBond_Acceptors:                   8
##########                        HBond_Donors:                   1
##########                         Heavy_Atoms:                  28
##########                          Grid_Score:          -31.037155
##########                     Grid_vdw_energy:          -31.037155
##########                      Grid_es_energy:            0.000000
##########           Internal_energy_repulsive:           25.745461

@<TRIPOS>MOLECULE
ZINC000011972961
 51 54 1 0 0
SMALL
USER_CHARGES


@<TRIPOS>ATOM
      1 C1         -8.3047    0.2708   57.4508 C.3                    0.0000
      2 C2         -8.7965   -0.0878   56.0723 C.2                    0.0000
      3 C3         -9.7480   -1.0080   55.8702 C.2                    0.0000
      4 C4        -10.4168   -1.7655   56.9351 C.2                    0.0000
      5 O5         -9.9710   -2.8412   57.2886 O.2                    0.0000
      6 N6        -11.5245   -1.2697   57.5212 N.am                   0.0000
      7 C7        -12.0611    0.0254   57.0956 C.3                    0.0000
      8 C8        -12.1919   -2.0256   58.5838 C.3                    0.0000
      9 H9        -11.4881   -2.7013   59.0699 H                      0.0000
     10 C10       -12.8224   -1.0631   59.6196 C.3                    0.0000
     11 C11       -14.2996   -1.0073   59.1537 C.3                    0.0000
     12 O12       -14.5651   -2.3563   58.7130 O.3                    0.0000
     13 C13       -13.3896   -2.8116   58.0161 C.3                    0.0000
     14 S14       -10.0860   -1.1832   54.1566 S.3                    0.0000
     15 C15        -8.8881    0.0367   53.7453 C.ar                   0.0000
     16 N16        -8.4994    0.5298   52.5639 N.ar                   0.0000
     17 C17        -7.5698    1.4545   52.4880 C.ar                   0.0000
     18 N18        -6.9741    1.9432   53.5605 N.ar                   0.0000
     19 C19        -7.2887    1.5201   54.7753 C.ar                   0.0000
     20 N20        -6.6559    2.0419   55.8852 N.pl3                  0.0000
     21 C21        -5.8319    3.2467   55.7598 C.3                    0.0000
     22 C22        -4.8802    3.3278   56.9254 C.ar                   0.0000
     23 N23        -3.7201    2.7039   56.8642 N.ar                   0.0000
     24 C24        -2.8560    2.7475   57.8596 C.ar                   0.0000
     25 C25        -1.5436    2.0165   57.7389 C.3                    0.0000
     26 C26        -3.1398    3.4558   59.0116 C.ar                   0.0000
     27 C27        -4.3501    4.1249   59.1126 C.ar                   0.0000
     28 C28        -5.2310    4.0601   58.0441 C.ar                   0.0000
     29 C29        -8.2939    0.5223   54.9184 C.ar                   0.0000
     30 H30        -8.6210    1.2845   57.6972 H                      0.0000
     31 H31        -8.7208   -0.4265   58.1780 H                      0.0000
     32 H32        -7.2164    0.2141   57.4746 H                      0.0000
     33 H33       -12.4115   -0.0471   56.0661 H                      0.0000
     34 H34       -12.8919    0.3050   57.7434 H                      0.0000
     35 H35       -11.2790    0.7819   57.1608 H                      0.0000
     36 H36       -12.7475   -1.4725   60.6270 H                      0.0000
     37 H37       -12.3602   -0.0773   59.5663 H                      0.0000
     38 H38       -14.9538   -0.7388   59.9832 H                      0.0000
     39 H39       -14.4157   -0.3042   58.3289 H                      0.0000
     40 H40       -13.4909   -2.6127   56.9492 H                      0.0000
     41 H41       -13.2492   -3.8794   58.1843 H                      0.0000
     42 H42        -7.2827    1.8274   51.5160 H                      0.0000
     43 H43        -6.7568    1.6110   56.7484 H                      0.0000
     44 H44        -5.2647    3.2039   54.8300 H                      0.0000
     45 H45        -6.4743    4.1272   55.7534 H                      0.0000
     46 H46        -0.7976    2.6792   57.3003 H                      0.0000
     47 H47        -1.2118    1.7000   58.7277 H                      0.0000
     48 H48        -1.6722    1.1417   57.1015 H                      0.0000
     49 H49        -2.4279    3.4876   59.8233 H                      0.0000
     50 H50        -4.5990    4.6864   60.0010 H                      0.0000
     51 H51        -6.1823    4.5694   58.0880 H                      0.0000
@<TRIPOS>BOND
     1     1     2    1
     2     1    30    1
     3     1    31    1
     4     1    32    1
     5     2    29    1
     6     2     3    2
     7     3     4    1
     8     3    14    1
     9     4     5    2
    10     4     6   am
    11     6     7    1
    12     6     8    1
    13     7    33    1
    14     7    34    1
    15     7    35    1
    16     8     9    1
    17     8    13    1
    18     8    10    1
    19    10    11    1
    20    10    36    1
    21    10    37    1
    22    11    12    1
    23    11    38    1
    24    11    39    1
    25    12    13    1
    26    13    40    1
    27    13    41    1
    28    14    15    1
    29    15    29   ar
    30    15    16   ar
    31    16    17   ar
    32    17    18   ar
    33    17    42    1
    34    18    19   ar
    35    19    20    1
    36    19    29   ar
    37    20    21    1
    38    20    43    1
    39    21    22    1
    40    21    44    1
    41    21    45    1
    42    22    28   ar
    43    22    23   ar
    44    23    24   ar
    45    24    25    1
    46    24    26   ar
    47    25    46    1
    48    25    47    1
    49    25    48    1
    50    26    27   ar
    51    26    49    1
    52    27    28   ar
    53    27    50    1
    54    28    51    1
@<TRIPOS>SUBSTRUCTURE
     1             1 TEMP              0 ****  ****    0 ROOT


##########                                Name:    ZINC001105194920
##########                DOCK_Rotatable_Bonds:                   8
##########                         Heavy_Atoms:                  25
##########                    Molecular_Weight:             346.392
##########                DOCK_Rotatable_Bonds:                   8
##########                       Formal_Charge:          -0.0100007
##########                     HBond_Acceptors:                  10
##########                        HBond_Donors:                   3
##########                         Heavy_Atoms:                  25
##########                          Grid_Score:          -31.027586
##########                     Grid_vdw_energy:          -30.867941
##########                      Grid_es_energy:           -0.159646
##########           Internal_energy_repulsive:           14.242599

@<TRIPOS>MOLECULE
ZINC001105194920
 47 49 1 0 0
SMALL
USER_CHARGES


@<TRIPOS>ATOM
      1 C1        -14.1322   -1.5461   60.2122 C.3     1  ZINC001105194920    0.0300
      2 O2        -14.0027   -1.0779   58.8683 O.3     1  ZINC001105194920   -0.3900
      3 C3        -12.7350   -1.3624   58.2734 C.3     1  ZINC001105194920    0.0700
      4 C4        -12.5477   -2.8775   58.1722 C.3     1  ZINC001105194920    0.0900
      5 H5        -12.5326   -3.3093   59.1729 H       1  ZINC001105194920    0.0900
      6 C6        -13.7041   -3.4821   57.3732 C.3     1  ZINC001105194920   -0.1800
      7 N7        -11.2780   -3.1698   57.4935 N.3     1  ZINC001105194920   -0.6800
      8 C8        -10.2119   -3.4434   58.4664 C.3     1  ZINC001105194920    0.1400
      9 C9         -9.4914   -2.1615   58.7959 C.2     1  ZINC001105194920   -0.0200
     10 C10        -9.2335   -1.1370   57.9498 C.2     1  ZINC001105194920   -0.0200
     11 N11        -8.5713   -0.2065   58.6753 N.pl3   1  ZINC001105194920   -0.2800
     12 C12        -8.0845    1.0828   58.1783 C.3     1  ZINC001105194920    0.1000
     13 C13        -7.4951    1.0170   56.7578 C.3     1  ZINC001105194920    0.1100
     14 N14        -8.8593    1.3240   56.2858 N.am    1  ZINC001105194920   -0.6300
     15 C15        -9.5345    1.1035   55.1404 C.2     1  ZINC001105194920    0.6200
     16 O16       -10.6857    1.4791   55.0316 O.2     1  ZINC001105194920   -0.5400
     17 C17        -8.8759    0.4054   54.0173 C.ar    1  ZINC001105194920   -0.0600
     18 N18        -7.7796    0.9158   53.4639 N.ar    1  ZINC001105194920   -0.3700
     19 C19        -7.1948    0.2907   52.4624 C.ar    1  ZINC001105194920   -0.0200
     20 C20        -7.7165   -0.9008   51.9792 C.ar    1  ZINC001105194920    0.1500
     21 N21        -8.8047   -1.4195   52.5183 N.ar    1  ZINC001105194920   -0.5100
     22 C22        -9.4013   -0.8036   53.5324 C.ar    1  ZINC001105194920    0.4200
     23 N23       -10.5406   -1.3436   54.1001 N.pl3   1  ZINC001105194920   -0.8100
     24 C24        -9.1871    1.9696   57.5718 C.3     1  ZINC001105194920    0.1100
     25 N25        -8.4428   -0.6486   59.8773 N.2     1  ZINC001105194920   -0.0800
     26 N26        -8.9861   -1.8098   59.9834 N.2     1  ZINC001105194920   -0.2600
     27 H27       -13.3716   -1.0761   60.8357 H       1  ZINC001105194920    0.0400
     28 H28       -15.1217   -1.2914   60.5920 H       1  ZINC001105194920    0.0800
     29 H29       -14.0022   -2.6281   60.2340 H       1  ZINC001105194920    0.0400
     30 H30       -12.6950   -0.9240   57.2762 H       1  ZINC001105194920    0.0600
     31 H31       -11.9415   -0.9385   58.8887 H       1  ZINC001105194920    0.0500
     32 H32       -13.7191   -3.0502   56.3725 H       1  ZINC001105194920    0.0700
     33 H33       -13.5706   -4.5615   57.3011 H       1  ZINC001105194920    0.0500
     34 H34       -14.6461   -3.2653   57.8768 H       1  ZINC001105194920    0.0600
     35 H35       -11.3823   -3.9366   56.8460 H       1  ZINC001105194920    0.3500
     36 H36       -10.6472   -3.8595   59.3749 H       1  ZINC001105194920    0.0900
     37 H37        -9.5067   -4.1575   58.0412 H       1  ZINC001105194920    0.0500
     38 H38        -9.5019   -1.0749   56.9055 H       1  ZINC001105194920    0.1800
     39 H39        -7.4487    1.6021   58.8955 H       1  ZINC001105194920    0.1500
     40 H40        -6.7698    1.8027   56.5462 H       1  ZINC001105194920    0.1200
     41 H41        -7.1446    0.0249   56.4730 H       1  ZINC001105194920    0.1000
     42 H42        -6.3048    0.7080   52.0150 H       1  ZINC001105194920    0.1800
     43 H43        -7.2304   -1.4063   51.1579 H       1  ZINC001105194920    0.1800
     44 H44       -10.8622   -2.2116   53.8104 H       1  ZINC001105194920    0.4000
     45 H45       -11.0184   -0.8542   54.7881 H       1  ZINC001105194920    0.4300
     46 H46       -10.1877    1.7379   57.9371 H       1  ZINC001105194920    0.1100
     47 H47        -8.9589    3.0350   57.5994 H       1  ZINC001105194920    0.1200
@<TRIPOS>BOND
     1     1     2    1
     2     1    27    1
     3     1    28    1
     4     1    29    1
     5     2     3    1
     6     3     4    1
     7     3    30    1
     8     3    31    1
     9     4     5    1
    10     4     6    1
    11     4     7    1
    12     6    32    1
    13     6    33    1
    14     6    34    1
    15     7     8    1
    16     7    35    1
    17     8     9    1
    18     8    36    1
    19     8    37    1
    20     9    26    1
    21     9    10    2
    22    10    11    1
    23    10    38    1
    24    11    12    1
    25    11    25    1
    26    12    24    1
    27    12    13    1
    28    12    39    1
    29    13    14    1
    30    13    40    1
    31    13    41    1
    32    14    15   am
    33    14    24    1
    34    15    16    2
    35    15    17    1
    36    17    22   ar
    37    17    18   ar
    38    18    19   ar
    39    19    20   ar
    40    19    42    1
    41    20    21   ar
    42    20    43    1
    43    21    22   ar
    44    22    23    1
    45    23    44    1
    46    23    45    1
    47    24    46    1
    48    24    47    1
    49    25    26    2
@<TRIPOS>SUBSTRUCTURE
     1 ZINC001105194920        1 TEMP              0 ****  ****    0 ROOT


##########                                Name:    ZINC000301324012
##########                DOCK_Rotatable_Bonds:                   7
##########                         Heavy_Atoms:                  28
##########                    Molecular_Weight:               415.9
##########                DOCK_Rotatable_Bonds:                   7
##########                       Formal_Charge:          -0.0100002
##########                     HBond_Acceptors:                   8
##########                        HBond_Donors:                   2
##########                         Heavy_Atoms:                  28
##########                          Grid_Score:          -31.027006
##########                     Grid_vdw_energy:          -31.740850
##########                      Grid_es_energy:            0.713844
##########           Internal_energy_repulsive:           12.642340

@<TRIPOS>MOLECULE
ZINC000301324012
 46 48 1 0 0
SMALL
USER_CHARGES


@<TRIPOS>ATOM
      1 C1         -7.2627    0.3197   52.0879 C.3     1  ZINC000301324012   -0.1600
      2 C2         -7.2690    1.5101   53.0491 C.3     1  ZINC000301324012    0.2000
      3 H3         -7.9888    2.2523   52.7037 H       1  ZINC000301324012    0.1100
      4 N4         -7.6440    1.0534   54.3897 N.am    1  ZINC000301324012   -0.7100
      5 C5         -8.9386    1.0538   54.7642 C.2     1  ZINC000301324012    0.5500
      6 O6         -9.7954    1.4316   53.9892 O.2     1  ZINC000301324012   -0.5300
      7 C7         -9.3167    0.5945   56.1177 C.ar    1  ZINC000301324012   -0.0700
      8 C8         -8.3299    0.3173   57.0650 C.ar    1  ZINC000301324012   -0.1100
      9 C9         -8.6894   -0.1105   58.3263 C.ar    1  ZINC000301324012   -0.0200
     10 C10       -10.0250   -0.2652   58.6530 C.ar    1  ZINC000301324012   -0.6600
     11 S11       -10.4756   -0.8124   60.2661 S.o2    1  ZINC000301324012    2.6900
     12 O12        -9.2884   -0.7815   61.0465 O.2     1  ZINC000301324012   -0.9400
     13 O13       -11.6546   -0.1008   60.6163 O.2     1  ZINC000301324012   -0.9400
     14 N14       -10.9108   -2.4052   60.1398 N.am    1  ZINC000301324012   -1.0500
     15 C15       -11.9740   -2.7754   59.3118 C.ar    1  ZINC000301324012    0.1600
     16 C16       -13.2795   -2.4811   59.6819 C.ar    1  ZINC000301324012   -0.1600
     17 C17       -14.3283   -2.8484   58.8611 C.ar    1  ZINC000301324012   -0.0800
     18 C18       -14.0798   -3.5089   57.6722 C.ar    1  ZINC000301324012   -0.1200
     19 C19       -12.7808   -3.8039   57.2996 C.ar    1  ZINC000301324012   -0.0900
     20 C20       -11.7266   -3.4341   58.1127 C.ar    1  ZINC000301324012   -0.0600
     21 Cl21      -10.0965   -3.8047   57.6447 Cl      1  ZINC000301324012   -0.0600
     22 C22       -11.0082    0.0083   57.7187 C.ar    1  ZINC000301324012   -0.0200
     23 C23       -10.6623    0.4417   56.4556 C.ar    1  ZINC000301324012   -0.0800
     24 C24        -5.8946    2.1264   53.0945 C.ar    1  ZINC000301324012    0.1200
     25 C25        -5.4607    2.7436   54.2521 C.ar    1  ZINC000301324012   -0.1600
     26 C26        -4.1941    3.3073   54.2835 C.ar    1  ZINC000301324012   -0.0700
     27 C27        -3.4083    3.2282   53.1441 C.ar    1  ZINC000301324012   -0.1700
     28 C28        -3.9099    2.5947   52.0227 C.ar    1  ZINC000301324012    0.1100
     29 N29        -5.1176    2.0655   52.0305 N.ar    1  ZINC000301324012   -0.4900
     30 H30        -6.9838    0.6595   51.0905 H       1  ZINC000301324012    0.0700
     31 H31        -6.5431   -0.4224   52.4335 H       1  ZINC000301324012    0.0600
     32 H32        -8.2569   -0.1260   52.0552 H       1  ZINC000301324012    0.0700
     33 H33        -6.9603    0.7508   55.0078 H       1  ZINC000301324012    0.4100
     34 H34        -7.2869    0.4370   56.8109 H       1  ZINC000301324012    0.1400
     35 H35        -7.9268   -0.3253   59.0602 H       1  ZINC000301324012    0.1500
     36 H36       -10.4279   -3.0811   60.6406 H       1  ZINC000301324012    0.4300
     37 H37       -13.4748   -1.9659   60.6107 H       1  ZINC000301324012    0.1700
     38 H38       -15.3438   -2.6197   59.1488 H       1  ZINC000301324012    0.1400
     39 H39       -14.9018   -3.7953   57.0330 H       1  ZINC000301324012    0.1400
     40 H40       -12.5902   -4.3199   56.3703 H       1  ZINC000301324012    0.1400
     41 H41       -12.0489   -0.1142   57.9802 H       1  ZINC000301324012    0.1500
     42 H42       -11.4308    0.6553   55.7273 H       1  ZINC000301324012    0.1500
     43 H43        -6.1002    2.7871   55.1214 H       1  ZINC000301324012    0.1400
     44 H44        -3.8286    3.7965   55.1743 H       1  ZINC000301324012    0.1400
     45 H45        -2.4169    3.6565   53.1328 H       1  ZINC000301324012    0.1400
     46 H46        -3.3042    2.5292   51.1309 H       1  ZINC000301324012    0.1600
@<TRIPOS>BOND
     1     1     2    1
     2     1    30    1
     3     1    31    1
     4     1    32    1
     5     2     3    1
     6     2     4    1
     7     2    24    1
     8     4     5   am
     9     4    33    1
    10     5     6    2
    11     5     7    1
    12     7    23   ar
    13     7     8   ar
    14     8     9   ar
    15     8    34    1
    16     9    10   ar
    17     9    35    1
    18    10    11    1
    19    10    22   ar
    20    11    12    2
    21    11    13    2
    22    11    14   am
    23    14    15    1
    24    14    36    1
    25    15    20   ar
    26    15    16   ar
    27    16    17   ar
    28    16    37    1
    29    17    18   ar
    30    17    38    1
    31    18    19   ar
    32    18    39    1
    33    19    20   ar
    34    19    40    1
    35    20    21    1
    36    22    23   ar
    37    22    41    1
    38    23    42    1
    39    24    29   ar
    40    24    25   ar
    41    25    26   ar
    42    25    43    1
    43    26    27   ar
    44    26    44    1
    45    27    28   ar
    46    27    45    1
    47    28    29   ar
    48    28    46    1
@<TRIPOS>SUBSTRUCTURE
     1 ZINC000301324012        1 TEMP              0 ****  ****    0 ROOT


##########                                Name:    ZINC000979274057
##########                DOCK_Rotatable_Bonds:                   6
##########                         Heavy_Atoms:                  24
##########                    Molecular_Weight:              330.39
##########                DOCK_Rotatable_Bonds:                   6
##########                       Formal_Charge:          0.00999946
##########                     HBond_Acceptors:                   8
##########                        HBond_Donors:                   1
##########                         Heavy_Atoms:                  24
##########                          Grid_Score:          -31.001993
##########                     Grid_vdw_energy:          -29.795929
##########                      Grid_es_energy:           -1.206065
##########           Internal_energy_repulsive:           11.690805

@<TRIPOS>MOLECULE
ZINC000979274057
 46 48 1 0 0
SMALL
USER_CHARGES


@<TRIPOS>ATOM
      1 C1         -8.4707   -0.1382   62.5712 C.3     1  ZINC000979274057   -0.1400
      2 C2         -9.3783   -0.4262   61.3737 C.3     1  ZINC000979274057    0.1000
      3 H3         -9.6097   -1.4909   61.3409 H       1  ZINC000979274057    0.0600
      4 N4         -8.6928   -0.0357   60.1345 N.3     1  ZINC000979274057   -0.6700
      5 C5         -8.1048   -1.2050   59.4673 C.3     1  ZINC000979274057    0.1300
      6 C6         -9.1060   -1.7909   58.5054 C.ar    1  ZINC000979274057    0.3200
      7 N7         -9.3690   -3.0812   58.5601 N.ar    1  ZINC000979274057   -0.5200
      8 C8        -10.2422   -3.6309   57.7316 C.ar    1  ZINC000979274057    0.1500
      9 C9        -10.8826   -2.8304   56.7987 C.ar    1  ZINC000979274057   -0.2300
     10 C10       -10.5799   -1.4782   56.7719 C.ar    1  ZINC000979274057    0.1500
     11 N11        -9.6995   -0.9983   57.6355 N.ar    1  ZINC000979274057   -0.5000
     12 C12       -10.6753    0.3735   61.5128 C.3     1  ZINC000979274057    0.0800
     13 H13       -11.2093    0.0486   62.4057 H       1  ZINC000979274057    0.0700
     14 C14       -11.5541    0.1426   60.2781 C.3     1  ZINC000979274057    0.0800
     15 N15       -12.7017    1.0610   60.3471 N.am    1  ZINC000979274057   -0.6000
     16 C16       -13.9620    0.6095   60.1920 C.2     1  ZINC000979274057    0.6100
     17 O17       -14.8974    1.3845   60.2526 O.2     1  ZINC000979274057   -0.5400
     18 C18       -14.2068   -0.8228   59.9490 C.2     1  ZINC000979274057   -0.0600
     19 C19       -14.1192   -1.4635   58.7479 C.2     1  ZINC000979274057    0.0400
     20 N20       -14.4210   -2.7638   58.9732 N.pl3   1  ZINC000979274057   -0.4600
     21 C21       -14.4539   -3.8296   57.9687 C.3     1  ZINC000979274057    0.0700
     22 C22       -14.6876   -2.9031   60.2980 C.2     1  ZINC000979274057    0.1900
     23 N23       -14.5550   -1.7467   60.8808 N.2     1  ZINC000979274057   -0.4600
     24 C24       -12.4327    2.4871   60.5907 C.3     1  ZINC000979274057    0.0500
     25 C25       -11.5110    2.6037   61.8101 C.3     1  ZINC000979274057    0.0500
     26 O26       -10.3686    1.7657   61.6197 O.3     1  ZINC000979274057   -0.3600
     27 H27        -7.5467   -0.7080   62.4720 H       1  ZINC000979274057    0.0600
     28 H28        -8.2392    0.9264   62.6039 H       1  ZINC000979274057    0.0700
     29 H29        -8.9793   -0.4279   63.4907 H       1  ZINC000979274057    0.0600
     30 H30        -9.3185    0.4572   59.5151 H       1  ZINC000979274057    0.3500
     31 H31        -7.2116   -0.9008   58.9215 H       1  ZINC000979274057    0.1000
     32 H32        -7.8373   -1.9529   60.2137 H       1  ZINC000979274057    0.0600
     33 H33       -10.4529   -4.6889   57.7814 H       1  ZINC000979274057    0.1700
     34 H34       -11.5999   -3.2504   56.1092 H       1  ZINC000979274057    0.1500
     35 H35       -11.0590   -0.8242   56.0584 H       1  ZINC000979274057    0.1700
     36 H36       -10.9778    0.3423   59.3747 H       1  ZINC000979274057    0.0700
     37 H37       -11.9088   -0.8880   60.2676 H       1  ZINC000979274057    0.1000
     38 H38       -13.8592   -1.0185   57.7988 H       1  ZINC000979274057    0.1900
     39 H39       -13.4698   -4.2933   57.8985 H       1  ZINC000979274057    0.0800
     40 H40       -15.1892   -4.5800   58.2590 H       1  ZINC000979274057    0.0900
     41 H41       -14.7269   -3.4088   57.0010 H       1  ZINC000979274057    0.0900
     42 H42       -14.9613   -3.8252   60.7890 H       1  ZINC000979274057    0.2100
     43 H43       -11.9449    2.9229   59.7188 H       1  ZINC000979274057    0.0700
     44 H44       -13.3692    3.0090   60.7871 H       1  ZINC000979274057    0.1500
     45 H45       -11.1883    3.6386   61.9250 H       1  ZINC000979274057    0.1100
     46 H46       -12.0485    2.2879   62.7042 H       1  ZINC000979274057    0.0500
@<TRIPOS>BOND
     1     1     2    1
     2     1    27    1
     3     1    28    1
     4     1    29    1
     5     2     3    1
     6     2     4    1
     7     2    12    1
     8     4     5    1
     9     4    30    1
    10     5     6    1
    11     5    31    1
    12     5    32    1
    13     6    11   ar
    14     6     7   ar
    15     7     8   ar
    16     8     9   ar
    17     8    33    1
    18     9    10   ar
    19     9    34    1
    20    10    11   ar
    21    10    35    1
    22    12    13    1
    23    12    26    1
    24    12    14    1
    25    14    15    1
    26    14    36    1
    27    14    37    1
    28    15    16   am
    29    15    24    1
    30    16    17    2
    31    16    18    1
    32    18    23    1
    33    18    19    2
    34    19    20    1
    35    19    38    1
    36    20    21    1
    37    20    22    1
    38    21    39    1
    39    21    40    1
    40    21    41    1
    41    22    23    2
    42    22    42    1
    43    24    25    1
    44    24    43    1
    45    24    44    1
    46    25    26    1
    47    25    45    1
    48    25    46    1
@<TRIPOS>SUBSTRUCTURE
     1 ZINC000979274057        1 TEMP              0 ****  ****    0 ROOT


##########                                Name:    ZINC000652498551
##########                DOCK_Rotatable_Bonds:                   6
##########                         Heavy_Atoms:                  23
##########                    Molecular_Weight:             388.277
##########                DOCK_Rotatable_Bonds:                   6
##########                       Formal_Charge:          -0.0400001
##########                     HBond_Acceptors:                   5
##########                        HBond_Donors:                   1
##########                         Heavy_Atoms:                  23
##########                          Grid_Score:          -31.000641
##########                     Grid_vdw_energy:          -21.579302
##########                      Grid_es_energy:           -9.421338
##########           Internal_energy_repulsive:           29.073645

@<TRIPOS>MOLECULE
ZINC000652498551
 46 47 1 0 0
SMALL
USER_CHARGES


@<TRIPOS>ATOM
      1 C1        -13.3812    0.1308   59.6829 C.3     1  ZINC000652498551   -0.1300
      2 C2        -13.2473    1.1562   60.8105 C.3     1  ZINC000652498551   -0.1300
      3 C3        -13.3185    2.5686   60.2265 C.3     1  ZINC000652498551   -0.1300
      4 C4        -14.3681    0.9644   61.7994 C.2     1  ZINC000652498551    0.5000
      5 O5        -14.1389    1.0056   62.9962 O.co2   1  ZINC000652498551   -0.7000
      6 O6        -15.5042    0.7682   61.4028 O.co2   1  ZINC000652498551   -0.6700
      7 C7        -11.9045    0.9639   61.5180 C.3     1  ZINC000652498551   -0.0600
      8 H8        -12.0098    0.2126   62.3006 H       1  ZINC000652498551    0.0700
      9 C9        -11.4593    2.2908   62.1395 C.3     1  ZINC000652498551   -0.1500
     10 C10       -10.0790    2.1069   62.7771 C.3     1  ZINC000652498551   -0.1400
     11 C11        -9.0965    1.6046   61.7170 C.3     1  ZINC000652498551   -0.0100
     12 N12        -9.5642    0.3209   61.1804 N.4     1  ZINC000652498551   -0.3800
     13 H13        -9.6720   -0.3391   61.9359 H       1  ZINC000652498551    0.4200
     14 C14        -8.5800   -0.1940   60.2191 C.3     1  ZINC000652498551    0.0000
     15 C15        -8.2337    0.9007   59.2079 C.3     1  ZINC000652498551    0.0200
     16 O16        -7.4416    0.3447   58.1564 O.3     1  ZINC000652498551   -0.3100
     17 C17        -7.1517    1.1575   57.1066 C.ar    1  ZINC000652498551    0.1600
     18 C18        -6.2253    2.1786   57.2544 C.ar    1  ZINC000652498551   -0.2300
     19 C19        -5.9316    3.0052   56.1839 C.ar    1  ZINC000652498551    0.1500
     20 F20        -5.0292    4.0004   56.3268 F       1  ZINC000652498551   -0.1200
     21 C21        -6.5621    2.8122   54.9665 C.ar    1  ZINC000652498551   -0.1600
     22 C22        -7.4869    1.7939   54.8184 C.ar    1  ZINC000652498551   -0.0300
     23 Br23       -8.3462    1.5328   53.1544 Br      1  ZINC000652498551   -0.0100
     24 C24        -7.7782    0.9629   55.8839 C.ar    1  ZINC000652498551   -0.1300
     25 C25       -10.8546    0.5028   60.5048 C.3     1  ZINC000652498551   -0.0200
     26 H26       -12.5705    0.2695   58.9675 H       1  ZINC000652498551    0.0400
     27 H27       -13.3305   -0.8754   60.0989 H       1  ZINC000652498551    0.0500
     28 H28       -14.3379    0.2678   59.1788 H       1  ZINC000652498551    0.0600
     29 H29       -14.2752    2.7056   59.7225 H       1  ZINC000652498551    0.0700
     30 H30       -13.2233    3.2991   61.0299 H       1  ZINC000652498551    0.0400
     31 H31       -12.5079    2.7073   59.5112 H       1  ZINC000652498551    0.0500
     32 H32       -11.4041    3.0558   61.3651 H       1  ZINC000652498551    0.1300
     33 H33       -12.1758    2.5943   62.9028 H       1  ZINC000652498551    0.0800
     34 H34        -9.7311    3.0610   63.1730 H       1  ZINC000652498551    0.1000
     35 H35       -10.1457    1.3792   63.5857 H       1  ZINC000652498551    0.0700
     36 H36        -9.0305    2.3332   60.9090 H       1  ZINC000652498551    0.1300
     37 H37        -8.1128    1.4728   62.1675 H       1  ZINC000652498551    0.1100
     38 H38        -7.6775   -0.4968   60.7500 H       1  ZINC000652498551    0.1400
     39 H39        -8.9988   -1.0532   59.6952 H       1  ZINC000652498551    0.1500
     40 H40        -9.1521    1.3141   58.7911 H       1  ZINC000652498551    0.1100
     41 H41        -7.6727    1.6913   59.7061 H       1  ZINC000652498551    0.0900
     42 H42        -5.7336    2.3291   58.2041 H       1  ZINC000652498551    0.1500
     43 H43        -6.3320    3.4574   54.1316 H       1  ZINC000652498551    0.1500
     44 H44        -8.5000    0.1680   55.7673 H       1  ZINC000652498551    0.1500
     45 H45       -11.1679   -0.4419   60.0606 H       1  ZINC000652498551    0.1100
     46 H46       -10.7518    1.2548   59.7226 H       1  ZINC000652498551    0.1700
@<TRIPOS>BOND
     1     1     2    1
     2     1    26    1
     3     1    27    1
     4     1    28    1
     5     2     3    1
     6     2     4    1
     7     2     7    1
     8     3    29    1
     9     3    30    1
    10     3    31    1
    11     4     5   ar
    12     4     6   ar
    13     7     8    1
    14     7    25    1
    15     7     9    1
    16     9    10    1
    17     9    32    1
    18     9    33    1
    19    10    11    1
    20    10    34    1
    21    10    35    1
    22    11    12    1
    23    11    36    1
    24    11    37    1
    25    12    13    1
    26    12    14    1
    27    12    25    1
    28    14    15    1
    29    14    38    1
    30    14    39    1
    31    15    16    1
    32    15    40    1
    33    15    41    1
    34    16    17    1
    35    17    24   ar
    36    17    18   ar
    37    18    19   ar
    38    18    42    1
    39    19    20    1
    40    19    21   ar
    41    21    22   ar
    42    21    43    1
    43    22    23    1
    44    22    24   ar
    45    24    44    1
    46    25    45    1
    47    25    46    1
@<TRIPOS>SUBSTRUCTURE
     1 ZINC000652498551        1 TEMP              0 ****  ****    0 ROOT


##########                                Name:    ZINC000885154703
##########                DOCK_Rotatable_Bonds:                   5
##########                         Heavy_Atoms:                  24
##########                    Molecular_Weight:             396.259
##########                DOCK_Rotatable_Bonds:                   5
##########                       Formal_Charge:          -0.0099998
##########                     HBond_Acceptors:                   6
##########                        HBond_Donors:                   1
##########                         Heavy_Atoms:                  24
##########                          Grid_Score:          -30.988804
##########                     Grid_vdw_energy:          -32.163734
##########                      Grid_es_energy:            1.174930
##########           Internal_energy_repulsive:            9.110858

@<TRIPOS>MOLECULE
ZINC000885154703
 43 45 1 0 0
SMALL
USER_CHARGES


@<TRIPOS>ATOM
      1 C1         -7.0269   -0.2081   67.0183 C.3     1  ZINC000885154703   -0.1500
      2 C2         -8.4471    0.1054   66.5430 C.3     1  ZINC000885154703   -0.0300
      3 C3         -8.4646    0.1979   65.0389 C.2     1  ZINC000885154703    0.1700
      4 N4         -7.8231   -0.5738   64.2134 N.2     1  ZINC000885154703   -0.3800
      5 O5         -8.0453   -0.2407   63.0684 O.3     1  ZINC000885154703    0.0800
      6 C6         -8.8749    0.8070   63.0544 C.2     1  ZINC000885154703    0.1800
      7 C7         -9.3969    1.5221   61.8349 C.3     1  ZINC000885154703    0.0000
      8 H8         -9.0060    2.5391   61.8029 H       1  ZINC000885154703    0.1300
      9 C9        -10.9392    1.5493   61.8581 C.3     1  ZINC000885154703   -0.1200
     10 C10       -11.3446    1.3680   60.3741 C.3     1  ZINC000885154703   -0.1300
     11 C11       -10.2988    0.3497   59.8560 C.3     1  ZINC000885154703    0.1400
     12 H12       -10.5823   -0.6646   60.1369 H       1  ZINC000885154703    0.1000
     13 N13       -10.1556    0.4568   58.4020 N.am    1  ZINC000885154703   -0.7100
     14 C14        -9.4697   -0.4827   57.7214 C.2     1  ZINC000885154703    0.5700
     15 O15        -8.9686   -1.4184   58.3142 O.2     1  ZINC000885154703   -0.5100
     16 C16        -9.3268   -0.3756   56.2553 C.ar    1  ZINC000885154703   -0.1600
     17 C17       -10.1092   -1.1717   55.4132 C.ar    1  ZINC000885154703    0.1500
     18 F18       -10.9991   -2.0423   55.9380 F       1  ZINC000885154703   -0.1200
     19 C19        -9.9695   -1.0650   54.0412 C.ar    1  ZINC000885154703   -0.1500
     20 C20        -9.0594   -0.1747   53.5037 C.ar    1  ZINC000885154703   -0.0400
     21 C21        -8.2816    0.6167   54.3331 C.ar    1  ZINC000885154703   -0.1100
     22 Br22       -7.0400    1.8308   53.5846 Br      1  ZINC000885154703   -0.0300
     23 C23        -8.4138    0.5254   55.7031 C.ar    1  ZINC000885154703    0.0100
     24 C24        -7.5665    1.3880   56.6025 C.3     1  ZINC000885154703   -0.1300
     25 C25        -8.9887    0.7601   60.5620 C.3     1  ZINC000885154703   -0.1300
     26 N26        -9.1517    1.0907   64.3044 N.2     1  ZINC000885154703   -0.4800
     27 H27        -6.7024   -1.1575   66.5921 H       1  ZINC000885154703    0.0600
     28 H28        -6.3524    0.5847   66.6951 H       1  ZINC000885154703    0.0600
     29 H29        -7.0143   -0.2749   68.1061 H       1  ZINC000885154703    0.0700
     30 H30        -9.1217   -0.6875   66.8662 H       1  ZINC000885154703    0.1000
     31 H31        -8.7716    1.0547   66.9692 H       1  ZINC000885154703    0.0900
     32 H32       -11.3262    0.7286   62.4622 H       1  ZINC000885154703    0.0800
     33 H33       -11.2982    2.5059   62.2375 H       1  ZINC000885154703    0.0900
     34 H34       -12.3524    0.9604   60.2961 H       1  ZINC000885154703    0.0800
     35 H35       -11.2655    2.3115   59.8342 H       1  ZINC000885154703    0.0800
     36 H36       -10.5543    1.2041   57.9292 H       1  ZINC000885154703    0.4000
     37 H37       -10.5728   -1.6789   53.3886 H       1  ZINC000885154703    0.1500
     38 H38        -8.9539   -0.0958   52.4318 H       1  ZINC000885154703    0.1500
     39 H39        -8.0842    2.3271   56.7983 H       1  ZINC000885154703    0.0900
     40 H40        -7.3895    0.8676   57.5437 H       1  ZINC000885154703    0.0800
     41 H41        -6.6130    1.5935   56.1159 H       1  ZINC000885154703    0.0900
     42 H42        -8.4006    1.4068   59.9109 H       1  ZINC000885154703    0.0900
     43 H43        -8.4133   -0.1271   60.8263 H       1  ZINC000885154703    0.0800
@<TRIPOS>BOND
     1     1     2    1
     2     1    27    1
     3     1    28    1
     4     1    29    1
     5     2     3    1
     6     2    30    1
     7     2    31    1
     8     3    26    1
     9     3     4    2
    10     4     5    1
    11     5     6    1
    12     6     7    1
    13     6    26    2
    14     7     8    1
    15     7    25    1
    16     7     9    1
    17     9    10    1
    18     9    32    1
    19     9    33    1
    20    10    11    1
    21    10    34    1
    22    10    35    1
    23    11    12    1
    24    11    13    1
    25    11    25    1
    26    13    14   am
    27    13    36    1
    28    14    15    2
    29    14    16    1
    30    16    23   ar
    31    16    17   ar
    32    17    18    1
    33    17    19   ar
    34    19    20   ar
    35    19    37    1
    36    20    21   ar
    37    20    38    1
    38    21    22    1
    39    21    23   ar
    40    23    24    1
    41    24    39    1
    42    24    40    1
    43    24    41    1
    44    25    42    1
    45    25    43    1
@<TRIPOS>SUBSTRUCTURE
     1 ZINC000885154703        1 TEMP              0 ****  ****    0 ROOT


##########                                Name:    ZINC000008416770
##########                DOCK_Rotatable_Bonds:                  13
##########                         Heavy_Atoms:                  30
##########                    Molecular_Weight:             412.442
##########                DOCK_Rotatable_Bonds:                  13
##########                       Formal_Charge:          -0.0199998
##########                     HBond_Acceptors:                   8
##########                        HBond_Donors:                   2
##########                         Heavy_Atoms:                  30
##########                          Grid_Score:          -30.983908
##########                     Grid_vdw_energy:          -29.065418
##########                      Grid_es_energy:           -1.918490
##########           Internal_energy_repulsive:          173.450089

@<TRIPOS>MOLECULE
ZINC000008416770
 54 55 1 0 0
SMALL
USER_CHARGES


@<TRIPOS>ATOM
      1 C1        -15.2562    4.4366   47.5750 C.3     1  ZINC000008416770   -0.1500
      2 C2        -13.9500    4.9863   48.1518 C.3     1  ZINC000008416770    0.0600
      3 O3        -13.4550    4.0832   49.1753 O.3     1  ZINC000008416770   -0.3500
      4 C4        -12.3042    4.4246   49.7877 C.2     1  ZINC000008416770    0.5100
      5 O5        -11.7304    5.4490   49.4754 O.2     1  ZINC000008416770   -0.5100
      6 C6        -11.7412    3.5547   50.8370 C.ar    1  ZINC000008416770   -0.1500
      7 C7        -10.5505    3.9102   51.4776 C.ar    1  ZINC000008416770   -0.0400
      8 C8        -10.0281    3.0960   52.4568 C.ar    1  ZINC000008416770   -0.1400
      9 C9        -10.6836    1.9204   52.8094 C.ar    1  ZINC000008416770    0.1800
     10 N10       -10.1516    1.0982   53.8016 N.am    1  ZINC000008416770   -0.6700
     11 C11        -9.0041    1.4428   54.4187 C.2     1  ZINC000008416770    0.5200
     12 O12        -8.4343    2.4682   54.1108 O.2     1  ZINC000008416770   -0.5100
     13 C13        -8.4290    0.5540   55.4913 C.3     1  ZINC000008416770   -0.1300
     14 C14        -8.9388    1.0109   56.8597 C.3     1  ZINC000008416770   -0.1000
     15 C15        -8.4316    0.0721   57.9237 C.2     1  ZINC000008416770    0.4700
     16 O16        -7.3685    0.2822   58.4580 O.2     1  ZINC000008416770   -0.5100
     17 O17        -9.1608   -0.9978   58.2779 O.3     1  ZINC000008416770   -0.3300
     18 C18        -8.6359   -1.8291   59.3463 C.3     1  ZINC000008416770    0.0500
     19 C19        -9.0896   -1.2841   60.6760 C.2     1  ZINC000008416770    0.5100
     20 O20       -10.1915   -1.5607   61.1008 O.2     1  ZINC000008416770   -0.4900
     21 N21        -8.2710   -0.4892   61.3932 N.am    1  ZINC000008416770   -0.6700
     22 C22        -8.6922    0.0169   62.6279 C.ar    1  ZINC000008416770    0.1400
     23 C23        -8.1380   -0.4692   63.8048 C.ar    1  ZINC000008416770   -0.1400
     24 C24        -8.5560    0.0325   65.0219 C.ar    1  ZINC000008416770   -0.1000
     25 C25        -9.5255    1.0173   65.0693 C.ar    1  ZINC000008416770   -0.1000
     26 C26        -9.9795    1.5621   66.3991 C.3     1  ZINC000008416770   -0.1200
     27 C27       -10.0789    1.5037   63.8991 C.ar    1  ZINC000008416770   -0.1000
     28 C28        -9.6612    1.0103   62.6787 C.ar    1  ZINC000008416770   -0.1200
     29 C29       -11.8692    1.5636   52.1742 C.ar    1  ZINC000008416770   -0.1600
     30 C30       -12.4000    2.3754   51.1975 C.ar    1  ZINC000008416770   -0.0300
     31 H31       -15.0753    3.4551   47.1369 H       1  ZINC000008416770    0.0700
     32 H32       -15.9960    4.3486   48.3707 H       1  ZINC000008416770    0.0700
     33 H33       -15.6279    5.1146   46.8068 H       1  ZINC000008416770    0.0800
     34 H34       -13.2102    5.0744   47.3562 H       1  ZINC000008416770    0.0700
     35 H35       -14.1309    5.9678   48.5900 H       1  ZINC000008416770    0.0700
     36 H36       -10.0409    4.8223   51.2042 H       1  ZINC000008416770    0.1400
     37 H37        -9.1082    3.3699   52.9519 H       1  ZINC000008416770    0.1400
     38 H38       -10.6074    0.2781   54.0479 H       1  ZINC000008416770    0.4200
     39 H39        -8.7380   -0.4761   55.3139 H       1  ZINC000008416770    0.1100
     40 H40        -7.3410    0.6160   55.4698 H       1  ZINC000008416770    0.1100
     41 H41        -8.5788    2.0194   57.0633 H       1  ZINC000008416770    0.1200
     42 H42       -10.0288    1.0071   56.8611 H       1  ZINC000008416770    0.1200
     43 H43        -9.0028   -2.8485   59.2271 H       1  ZINC000008416770    0.1100
     44 H44        -7.5466   -1.8279   59.3058 H       1  ZINC000008416770    0.1100
     45 H45        -7.3897   -0.2680   61.0536 H       1  ZINC000008416770    0.4100
     46 H46        -7.3813   -1.2389   63.7685 H       1  ZINC000008416770    0.1300
     47 H47        -8.1254   -0.3451   65.9376 H       1  ZINC000008416770    0.1300
     48 H48        -9.3585    2.4148   66.6736 H       1  ZINC000008416770    0.0700
     49 H49       -11.0199    1.8789   66.3258 H       1  ZINC000008416770    0.0700
     50 H50        -9.8886    0.7865   67.1596 H       1  ZINC000008416770    0.0700
     51 H51       -10.8360    2.2729   63.9395 H       1  ZINC000008416770    0.1300
     52 H52       -10.0939    1.3906   61.7650 H       1  ZINC000008416770    0.1300
     53 H53       -12.3756    0.6506   52.4506 H       1  ZINC000008416770    0.1400
     54 H54       -13.3201    2.0979   50.7049 H       1  ZINC000008416770    0.1400
@<TRIPOS>BOND
     1     1     2    1
     2     1    31    1
     3     1    32    1
     4     1    33    1
     5     2     3    1
     6     2    34    1
     7     2    35    1
     8     3     4    1
     9     4     5    2
    10     4     6    1
    11     6    30   ar
    12     6     7   ar
    13     7     8   ar
    14     7    36    1
    15     8     9   ar
    16     8    37    1
    17     9    10    1
    18     9    29   ar
    19    10    11   am
    20    10    38    1
    21    11    12    2
    22    11    13    1
    23    13    14    1
    24    13    39    1
    25    13    40    1
    26    14    15    1
    27    14    41    1
    28    14    42    1
    29    15    16    2
    30    15    17    1
    31    17    18    1
    32    18    19    1
    33    18    43    1
    34    18    44    1
    35    19    20    2
    36    19    21   am
    37    21    22    1
    38    21    45    1
    39    22    28   ar
    40    22    23   ar
    41    23    24   ar
    42    23    46    1
    43    24    25   ar
    44    24    47    1
    45    25    26    1
    46    25    27   ar
    47    26    48    1
    48    26    49    1
    49    26    50    1
    50    27    28   ar
    51    27    51    1
    52    28    52    1
    53    29    30   ar
    54    29    53    1
    55    30    54    1
@<TRIPOS>SUBSTRUCTURE
     1 ZINC000008416770        1 TEMP              0 ****  ****    0 ROOT


##########                                Name:    ZINC001065334255
##########                DOCK_Rotatable_Bonds:                   7
##########                         Heavy_Atoms:                  23
##########                    Molecular_Weight:             346.448
##########                DOCK_Rotatable_Bonds:                   7
##########                       Formal_Charge:        -5.81145e-07
##########                     HBond_Acceptors:                   8
##########                        HBond_Donors:                   1
##########                         Heavy_Atoms:                  23
##########                          Grid_Score:          -30.972055
##########                     Grid_vdw_energy:          -30.221489
##########                      Grid_es_energy:           -0.750566
##########           Internal_energy_repulsive:           19.617113

@<TRIPOS>MOLECULE
ZINC001065334255
 49 50 1 0 0
SMALL
USER_CHARGES


@<TRIPOS>ATOM
      1 C1         -9.2031   -0.2586   61.3908 C.3     1  ZINC001065334255   -0.1500
      2 C2         -9.5896   -0.6994   59.9776 C.3     1  ZINC001065334255   -0.0800
      3 C3         -8.3597   -1.2671   59.2662 C.3     1  ZINC001065334255   -0.1500
      4 C4        -10.6744   -1.7755   60.0577 C.3     1  ZINC001065334255   -0.1400
      5 C5        -11.1021   -2.1623   58.6654 C.2     1  ZINC001065334255    0.5100
      6 O6        -11.3702   -3.3177   58.4124 O.2     1  ZINC001065334255   -0.5300
      7 N7        -11.1867   -1.2242   57.7014 N.am    1  ZINC001065334255   -0.7300
      8 C8        -11.6042   -1.6000   56.3483 C.3     1  ZINC001065334255    0.1300
      9 C9        -10.9911   -0.6290   55.3373 C.3     1  ZINC001065334255    0.0700
     10 H10       -11.2438    0.3942   55.6157 H       1  ZINC001065334255    0.0700
     11 C11        -9.4672   -0.7951   55.3271 C.3     1  ZINC001065334255    0.0800
     12 N12        -8.9201    0.0082   54.2222 N.am    1  ZINC001065334255   -0.6100
     13 C13        -7.9033    0.8687   54.4273 C.2     1  ZINC001065334255    0.5400
     14 O14        -7.4258    0.9901   55.5356 O.2     1  ZINC001065334255   -0.5200
     15 C15        -7.3597    1.6801   53.2797 C.3     1  ZINC001065334255   -0.1100
     16 H16        -8.1795    2.1311   52.7205 H       1  ZINC001065334255    0.1200
     17 C17        -6.5193    0.7845   52.3526 C.3     1  ZINC001065334255   -0.1000
     18 C18        -5.7077    1.6838   51.3990 C.3     1  ZINC001065334255   -0.5900
     19 S19        -5.4580    3.2468   52.3158 S.o2    1  ZINC001065334255    2.3900
     20 O20        -4.0841    3.3803   52.6535 O.2     1  ZINC001065334255   -0.9300
     21 O21        -6.1261    4.3021   51.6383 O.2     1  ZINC001065334255   -0.9300
     22 C22        -6.4099    2.7836   53.8126 C.3     1  ZINC001065334255   -0.5900
     23 C23        -9.5157   -0.1562   52.8867 C.3     1  ZINC001065334255    0.0600
     24 C24       -11.0372   -0.0211   53.0158 C.3     1  ZINC001065334255    0.0500
     25 O25       -11.5049   -0.9098   54.0332 O.3     1  ZINC001065334255   -0.3700
     26 H26        -8.4303    0.5079   61.3337 H       1  ZINC001065334255    0.0600
     27 H27       -10.0793    0.1459   61.8976 H       1  ZINC001065334255    0.0500
     28 H28        -8.8244   -1.1155   61.9479 H       1  ZINC001065334255    0.0600
     29 H29        -9.9682    0.1575   59.4205 H       1  ZINC001065334255    0.0800
     30 H30        -7.9810   -2.1241   59.8233 H       1  ZINC001065334255    0.0500
     31 H31        -8.6351   -1.5812   58.2594 H       1  ZINC001065334255    0.0700
     32 H32        -7.5869   -0.5006   59.2091 H       1  ZINC001065334255    0.0500
     33 H33       -10.2801   -2.6512   60.5731 H       1  ZINC001065334255    0.0900
     34 H34       -11.5321   -1.3865   60.6064 H       1  ZINC001065334255    0.0900
     35 H35       -10.9710   -0.3003   57.9035 H       1  ZINC001065334255    0.4000
     36 H36       -11.2647   -2.6127   56.1314 H       1  ZINC001065334255    0.0900
     37 H37       -12.6912   -1.5584   56.2789 H       1  ZINC001065334255    0.0800
     38 H38        -9.0535   -0.4473   56.2737 H       1  ZINC001065334255    0.1100
     39 H39        -9.2134   -1.8447   55.1786 H       1  ZINC001065334255    0.0900
     40 H40        -5.8399    0.1753   52.9487 H       1  ZINC001065334255    0.1000
     41 H41        -7.1774    0.1364   51.7739 H       1  ZINC001065334255    0.1000
     42 H42        -4.7474    1.2222   51.1691 H       1  ZINC001065334255    0.1500
     43 H43        -6.2691    1.8679   50.4829 H       1  ZINC001065334255    0.1400
     44 H44        -6.9771    3.6350   54.1891 H       1  ZINC001065334255    0.1400
     45 H45        -5.7497    2.3858   54.5832 H       1  ZINC001065334255    0.1500
     46 H46        -9.1342    0.6148   52.2172 H       1  ZINC001065334255    0.1000
     47 H47        -9.2667   -1.1414   52.4924 H       1  ZINC001065334255    0.0900
     48 H48       -11.2901    1.0045   53.2849 H       1  ZINC001065334255    0.0600
     49 H49       -11.5072   -0.2756   52.0659 H       1  ZINC001065334255    0.1100
@<TRIPOS>BOND
     1     1     2    1
     2     1    26    1
     3     1    27    1
     4     1    28    1
     5     2     3    1
     6     2     4    1
     7     2    29    1
     8     3    30    1
     9     3    31    1
    10     3    32    1
    11     4     5    1
    12     4    33    1
    13     4    34    1
    14     5     6    2
    15     5     7   am
    16     7     8    1
    17     7    35    1
    18     8     9    1
    19     8    36    1
    20     8    37    1
    21     9    10    1
    22     9    25    1
    23     9    11    1
    24    11    12    1
    25    11    38    1
    26    11    39    1
    27    12    13   am
    28    12    23    1
    29    13    14    2
    30    13    15    1
    31    15    16    1
    32    15    22    1
    33    15    17    1
    34    17    18    1
    35    17    40    1
    36    17    41    1
    37    18    19    1
    38    18    42    1
    39    18    43    1
    40    19    20    2
    41    19    21    2
    42    19    22    1
    43    22    44    1
    44    22    45    1
    45    23    24    1
    46    23    46    1
    47    23    47    1
    48    24    25    1
    49    24    48    1
    50    24    49    1
@<TRIPOS>SUBSTRUCTURE
     1 ZINC001065334255        1 TEMP              0 ****  ****    0 ROOT


##########                                Name:    ZINC000460972051
##########                DOCK_Rotatable_Bonds:                  10
##########                         Heavy_Atoms:                  29
##########                    Molecular_Weight:             417.572
##########                DOCK_Rotatable_Bonds:                  10
##########                       Formal_Charge:         3.31551e-07
##########                     HBond_Acceptors:                   7
##########                        HBond_Donors:                   2
##########                         Heavy_Atoms:                  29
##########                          Grid_Score:          -30.967400
##########                     Grid_vdw_energy:          -30.954065
##########                      Grid_es_energy:           -0.013334
##########           Internal_energy_repulsive:           37.939827

@<TRIPOS>MOLECULE
ZINC000460972051
 60 61 1 0 0
SMALL
USER_CHARGES


@<TRIPOS>ATOM
      1 C1        -14.8202    0.6415   56.9131 C.3     1  ZINC000460972051   -0.1800
      2 C2        -14.5439   -0.7714   56.3949 C.3     1  ZINC000460972051    0.1000
      3 N3        -14.0154   -1.5963   57.4841 N.am    1  ZINC000460972051   -0.6200
      4 C4        -12.6838   -1.7191   57.6515 C.2     1  ZINC000460972051    0.7100
      5 O5        -12.2452   -2.4026   58.5565 O.2     1  ZINC000460972051   -0.5800
      6 N6        -11.8383   -1.0842   56.8158 N.am    1  ZINC000460972051   -0.7400
      7 C7        -10.3907   -1.2190   56.9966 C.3     1  ZINC000460972051    0.2000
      8 H8        -10.1568   -2.2369   57.3086 H       1  ZINC000460972051    0.1100
      9 C9         -9.6812   -0.9147   55.6757 C.3     1  ZINC000460972051    0.1100
     10 N10       -10.6429   -0.3558   54.7222 N.am    1  ZINC000460972051   -1.1200
     11 S11       -10.3104   -0.3804   53.1002 S.o2    1  ZINC000460972051    2.7000
     12 O12       -10.0072   -1.7296   52.7730 O.2     1  ZINC000460972051   -0.9500
     13 O13       -11.3457    0.3590   52.4670 O.2     1  ZINC000460972051   -0.9600
     14 C14        -8.8251    0.5362   52.8582 C.ar    1  ZINC000460972051   -0.6900
     15 C15        -7.6422   -0.1243   52.5850 C.ar    1  ZINC000460972051   -0.0100
     16 C16        -6.4768    0.5950   52.3951 C.ar    1  ZINC000460972051   -0.1500
     17 C17        -6.4948    1.9744   52.4782 C.ar    1  ZINC000460972051   -0.0200
     18 C18        -5.2244    2.7584   52.2717 C.3     1  ZINC000460972051   -0.1300
     19 C19        -7.6784    2.6353   52.7501 C.ar    1  ZINC000460972051   -0.1500
     20 C20        -8.8442    1.9165   52.9362 C.ar    1  ZINC000460972051    0.0300
     21 C21       -10.1343    2.6367   53.2326 C.3     1  ZINC000460972051   -0.1700
     22 C22        -9.9239   -0.2501   58.0523 C.ar    1  ZINC000460972051   -0.1000
     23 C23        -9.1231   -0.6910   59.0893 C.ar    1  ZINC000460972051   -0.1000
     24 C24        -8.6949    0.1977   60.0577 C.ar    1  ZINC000460972051   -0.1200
     25 C25        -9.0671    1.5272   59.9890 C.ar    1  ZINC000460972051   -0.1200
     26 C26        -9.8672    1.9681   58.9516 C.ar    1  ZINC000460972051   -0.1200
     27 C27       -10.2919    1.0803   57.9808 C.ar    1  ZINC000460972051   -0.1000
     28 C28       -14.9346   -2.2879   58.3914 C.3     1  ZINC000460972051    0.1500
     29 C29       -14.6884   -3.7960   58.3148 C.3     1  ZINC000460972051   -0.1600
     30 C30       -14.6976   -1.8046   59.8236 C.3     1  ZINC000460972051   -0.1600
     31 H31       -15.2134    1.2552   56.1027 H       1  ZINC000460972051    0.0700
     32 H32       -15.5502    0.5957   57.7213 H       1  ZINC000460972051    0.0600
     33 H33       -13.8940    1.0798   57.2844 H       1  ZINC000460972051    0.0700
     34 H34       -15.4702   -1.2098   56.0235 H       1  ZINC000460972051    0.0700
     35 H35       -13.8139   -0.7256   55.5866 H       1  ZINC000460972051    0.0900
     36 H36       -12.1882   -0.5379   56.0946 H       1  ZINC000460972051    0.4000
     37 H37        -8.8820   -0.1942   55.8501 H       1  ZINC000460972051    0.0900
     38 H38        -9.2594   -1.8341   55.2696 H       1  ZINC000460972051    0.0900
     39 H39       -11.4745    0.0285   55.0411 H       1  ZINC000460972051    0.4200
     40 H40        -7.6281   -1.2023   52.5201 H       1  ZINC000460972051    0.1400
     41 H41        -5.5523    0.0788   52.1824 H       1  ZINC000460972051    0.1300
     42 H42        -5.1174    3.0053   51.2155 H       1  ZINC000460972051    0.0800
     43 H43        -5.2650    3.6768   52.8573 H       1  ZINC000460972051    0.0700
     44 H44        -4.3720    2.1600   52.5931 H       1  ZINC000460972051    0.0700
     45 H45        -7.6925    3.7132   52.8146 H       1  ZINC000460972051    0.1300
     46 H46       -10.6942    2.7745   52.3077 H       1  ZINC000460972051    0.0900
     47 H47       -10.7271    2.0472   53.9319 H       1  ZINC000460972051    0.1000
     48 H48        -9.9145    3.6095   53.6726 H       1  ZINC000460972051    0.0900
     49 H49        -8.8322   -1.7296   59.1430 H       1  ZINC000460972051    0.1200
     50 H50        -8.0699   -0.1469   60.8683 H       1  ZINC000460972051    0.1200
     51 H51        -8.7332    2.2213   60.7461 H       1  ZINC000460972051    0.1200
     52 H52       -10.1584    3.0068   58.8980 H       1  ZINC000460972051    0.1200
     53 H53       -10.9170    1.4249   57.1703 H       1  ZINC000460972051    0.1200
     54 H54       -15.9628   -2.0724   58.1007 H       1  ZINC000460972051    0.1000
     55 H55       -14.8572   -4.1404   57.2945 H       1  ZINC000460972051    0.0600
     56 H56       -13.6602   -4.0116   58.6054 H       1  ZINC000460972051    0.0600
     57 H57       -15.3722   -4.3106   58.9898 H       1  ZINC000460972051    0.0700
     58 H58       -14.8729   -0.7302   59.8782 H       1  ZINC000460972051    0.0600
     59 H59       -15.3814   -2.3191   60.4986 H       1  ZINC000460972051    0.0700
     60 H60       -13.6694   -2.0202   60.1142 H       1  ZINC000460972051    0.0600
@<TRIPOS>BOND
     1     1     2    1
     2     1    31    1
     3     1    32    1
     4     1    33    1
     5     2     3    1
     6     2    34    1
     7     2    35    1
     8     3     4   am
     9     3    28    1
    10     4     5    2
    11     4     6   am
    12     6     7    1
    13     6    36    1
    14     7     8    1
    15     7     9    1
    16     7    22    1
    17     9    10    1
    18     9    37    1
    19     9    38    1
    20    10    11   am
    21    10    39    1
    22    11    12    2
    23    11    13    2
    24    11    14    1
    25    14    20   ar
    26    14    15   ar
    27    15    16   ar
    28    15    40    1
    29    16    17   ar
    30    16    41    1
    31    17    18    1
    32    17    19   ar
    33    18    42    1
    34    18    43    1
    35    18    44    1
    36    19    20   ar
    37    19    45    1
    38    20    21    1
    39    21    46    1
    40    21    47    1
    41    21    48    1
    42    22    27   ar
    43    22    23   ar
    44    23    24   ar
    45    23    49    1
    46    24    25   ar
    47    24    50    1
    48    25    26   ar
    49    25    51    1
    50    26    27   ar
    51    26    52    1
    52    27    53    1
    53    28    29    1
    54    28    30    1
    55    28    54    1
    56    29    55    1
    57    29    56    1
    58    29    57    1
    59    30    58    1
    60    30    59    1
    61    30    60    1
@<TRIPOS>SUBSTRUCTURE
     1 ZINC000460972051        1 TEMP              0 ****  ****    0 ROOT


##########                                Name:    ZINC000451500596
##########                DOCK_Rotatable_Bonds:                   7
##########                         Heavy_Atoms:                  25
##########                    Molecular_Weight:             365.497
##########                DOCK_Rotatable_Bonds:                   7
##########                       Formal_Charge:           0.0400004
##########                     HBond_Acceptors:                   7
##########                        HBond_Donors:                   2
##########                         Heavy_Atoms:                  25
##########                          Grid_Score:          -30.967049
##########                     Grid_vdw_energy:          -30.743343
##########                      Grid_es_energy:           -0.223705
##########           Internal_energy_repulsive:           12.995481

@<TRIPOS>MOLECULE
ZINC000451500596
 52 54 1 0 0
SMALL
USER_CHARGES


@<TRIPOS>ATOM
      1 C1         -9.6187    0.6891   59.3980 C.3     1  ZINC000451500596   -0.6700
      2 S2         -8.6704   -0.7596   59.9388 S.o2    1  ZINC000451500596    2.6100
      3 O3         -7.4599   -0.8664   59.2022 O.2     1  ZINC000451500596   -0.9500
      4 O4         -8.6767   -0.8589   61.3563 O.2     1  ZINC000451500596   -0.9600
      5 N5         -9.5709   -2.0546   59.4346 N.am    1  ZINC000451500596   -1.1200
      6 C6        -10.9410   -2.2288   59.9233 C.3     1  ZINC000451500596    0.1200
      7 C7        -11.9281   -1.7683   58.8487 C.3     1  ZINC000451500596   -0.1000
      8 H8        -11.7969   -0.7041   58.6530 H       1  ZINC000451500596    0.0900
      9 C9        -13.3748   -2.0470   59.3059 C.3     1  ZINC000451500596   -0.1200
     10 C10       -14.1075   -2.4725   58.0093 C.3     1  ZINC000451500596   -0.1300
     11 C11       -13.0363   -3.3137   57.2716 C.3     1  ZINC000451500596   -0.1300
     12 C12       -11.7120   -2.5728   57.5549 C.3     1  ZINC000451500596    0.1400
     13 H13       -10.9042   -3.2915   57.6928 H       1  ZINC000451500596    0.1000
     14 N14       -11.3955   -1.6690   56.4462 N.am    1  ZINC000451500596   -0.7200
     15 C15       -10.5098   -2.0448   55.5024 C.2     1  ZINC000451500596    0.5300
     16 O16        -9.9737   -3.1305   55.5717 O.2     1  ZINC000451500596   -0.5300
     17 C17       -10.1856   -1.1160   54.3608 C.3     1  ZINC000451500596   -0.1300
     18 H18        -9.7964   -1.6748   53.5097 H       1  ZINC000451500596    0.1000
     19 C19       -11.4353   -0.2929   53.9514 C.3     1  ZINC000451500596   -0.1200
     20 C20       -10.7885    0.9719   53.3338 C.3     1  ZINC000451500596    0.0500
     21 N21        -9.5980    1.2340   54.1704 N.3     1  ZINC000451500596   -0.4900
     22 C22        -8.5590    1.7724   53.4078 C.ar    1  ZINC000451500596    0.0800
     23 C23        -7.9540    1.0086   52.4177 C.ar    1  ZINC000451500596   -0.0900
     24 C24        -6.9272    1.5442   51.6653 C.ar    1  ZINC000451500596   -0.1100
     25 C25        -6.5008    2.8391   51.8970 C.ar    1  ZINC000451500596   -0.1200
     26 C26        -7.1008    3.6022   52.8820 C.ar    1  ZINC000451500596   -0.1100
     27 C27        -8.1319    3.0747   53.6342 C.ar    1  ZINC000451500596   -0.1500
     28 C28        -9.1816   -0.0324   54.8072 C.3     1  ZINC000451500596    0.0600
     29 H29        -9.7287    0.6674   58.3138 H       1  ZINC000451500596    0.1300
     30 H30       -10.6042    0.6728   59.8636 H       1  ZINC000451500596    0.1300
     31 H31        -9.0932    1.5978   59.6917 H       1  ZINC000451500596    0.1300
     32 H32        -9.1912   -2.6980   58.8159 H       1  ZINC000451500596    0.4200
     33 H33       -11.1151   -3.2806   60.1497 H       1  ZINC000451500596    0.0700
     34 H34       -11.0831   -1.6344   60.8258 H       1  ZINC000451500596    0.0900
     35 H35       -13.3948   -2.8545   60.0378 H       1  ZINC000451500596    0.0800
     36 H36       -13.8247   -1.1446   59.7196 H       1  ZINC000451500596    0.0700
     37 H37       -14.9826   -3.0794   58.2415 H       1  ZINC000451500596    0.0700
     38 H38       -14.3870   -1.5997   57.4193 H       1  ZINC000451500596    0.0700
     39 H39       -13.0016   -4.3257   57.6751 H       1  ZINC000451500596    0.0800
     40 H40       -13.2393   -3.3356   56.2010 H       1  ZINC000451500596    0.0700
     41 H41       -11.8234   -0.8003   56.3913 H       1  ZINC000451500596    0.4000
     42 H42       -12.0302   -0.8283   53.2113 H       1  ZINC000451500596    0.0800
     43 H43       -12.0374   -0.0375   54.8233 H       1  ZINC000451500596    0.0800
     44 H44       -10.4929    0.7818   52.3020 H       1  ZINC000451500596    0.0600
     45 H45       -11.4793    1.8137   53.3825 H       1  ZINC000451500596    0.0900
     46 H46        -8.2862   -0.0030   52.2366 H       1  ZINC000451500596    0.1300
     47 H47        -6.4566    0.9510   50.8953 H       1  ZINC000451500596    0.1300
     48 H48        -5.6972    3.2552   51.3077 H       1  ZINC000451500596    0.1200
     49 H49        -6.7653    4.6131   53.0604 H       1  ZINC000451500596    0.1200
     50 H50        -8.6003    3.6712   54.4031 H       1  ZINC000451500596    0.1200
     51 H51        -9.2094    0.0714   55.8919 H       1  ZINC000451500596    0.1000
     52 H52        -8.1749   -0.2967   54.4835 H       1  ZINC000451500596    0.0700
@<TRIPOS>BOND
     1     1     2    1
     2     1    29    1
     3     1    30    1
     4     1    31    1
     5     2     3    2
     6     2     4    2
     7     2     5   am
     8     5     6    1
     9     5    32    1
    10     6     7    1
    11     6    33    1
    12     6    34    1
    13     7     8    1
    14     7    12    1
    15     7     9    1
    16     9    10    1
    17     9    35    1
    18     9    36    1
    19    10    11    1
    20    10    37    1
    21    10    38    1
    22    11    12    1
    23    11    39    1
    24    11    40    1
    25    12    13    1
    26    12    14    1
    27    14    15   am
    28    14    41    1
    29    15    16    2
    30    15    17    1
    31    17    18    1
    32    17    28    1
    33    17    19    1
    34    19    20    1
    35    19    42    1
    36    19    43    1
    37    20    21    1
    38    20    44    1
    39    20    45    1
    40    21    22    1
    41    21    28    1
    42    22    27   ar
    43    22    23   ar
    44    23    24   ar
    45    23    46    1
    46    24    25   ar
    47    24    47    1
    48    25    26   ar
    49    25    48    1
    50    26    27   ar
    51    26    49    1
    52    27    50    1
    53    28    51    1
    54    28    52    1
@<TRIPOS>SUBSTRUCTURE
     1 ZINC000451500596        1 TEMP              0 ****  ****    0 ROOT


##########                                Name:    ZINC000541000201
##########                DOCK_Rotatable_Bonds:                  10
##########                         Heavy_Atoms:                  30
##########                    Molecular_Weight:             420.413
##########                DOCK_Rotatable_Bonds:                  10
##########                       Formal_Charge:               -0.03
##########                     HBond_Acceptors:                   9
##########                        HBond_Donors:                   1
##########                         Heavy_Atoms:                  30
##########                          Grid_Score:          -30.952595
##########                     Grid_vdw_energy:          -30.438820
##########                      Grid_es_energy:           -0.513776
##########           Internal_energy_repulsive:           16.794029

@<TRIPOS>MOLECULE
ZINC000541000201
 52 54 1 0 0
SMALL
USER_CHARGES


@<TRIPOS>ATOM
      1 C1        -15.0408   -2.6895   57.2877 C.3     1  ZINC000541000201    0.0400
      2 O2        -13.6785   -2.2342   57.5001 O.3     1  ZINC000541000201   -0.3500
      3 C3        -12.6929   -3.0603   57.1153 C.2     1  ZINC000541000201    0.4500
      4 O4        -12.9596   -4.1182   56.5961 O.2     1  ZINC000541000201   -0.4900
      5 C5        -11.2539   -2.6683   57.3309 C.3     1  ZINC000541000201    0.2100
      6 H6        -10.6478   -3.5654   57.4569 H       1  ZINC000541000201    0.1400
      7 N7        -11.1493   -1.8357   58.5319 N.am    1  ZINC000541000201   -0.7100
      8 C8         -9.9772   -1.7485   59.1914 C.2     1  ZINC000541000201    0.5800
      9 O9         -9.0062   -2.3594   58.7888 O.2     1  ZINC000541000201   -0.5300
     10 C10        -9.8723   -0.9110   60.4025 C.ar    1  ZINC000541000201   -0.2300
     11 C11        -8.6595   -0.8179   61.1005 C.ar    1  ZINC000541000201    0.0200
     12 C12        -8.6112   -0.0224   62.2271 C.ar    1  ZINC000541000201   -0.2000
     13 C13        -9.7570    0.6558   62.6306 C.ar    1  ZINC000541000201    0.3500
     14 O14        -9.7154    1.4383   63.7360 O.3     1  ZINC000541000201   -0.2900
     15 C15       -10.9236    2.1073   64.1031 C.3     1  ZINC000541000201    0.0800
     16 C16       -10.6751    3.0563   65.3017 C.3     1  ZINC000541000201   -0.1400
     17 C17       -11.8239    4.0864   65.1659 C.3     1  ZINC000541000201   -0.1200
     18 C18       -11.9607    4.3023   63.6445 C.3     1  ZINC000541000201   -0.1200
     19 C19       -11.3883    3.0438   62.9688 C.3     1  ZINC000541000201   -0.1200
     20 N20       -10.8877    0.5477   61.9496 N.ar    1  ZINC000541000201   -0.5400
     21 C21       -10.9770   -0.1955   60.8667 C.ar    1  ZINC000541000201    0.1800
     22 C22       -10.7604   -1.8922   56.1371 C.ar    1  ZINC000541000201   -0.1300
     23 C23       -10.9215   -0.5197   56.0916 C.ar    1  ZINC000541000201   -0.0700
     24 C24       -10.4700    0.1940   54.9983 C.ar    1  ZINC000541000201   -0.1300
     25 C25        -9.8540   -0.4675   53.9459 C.ar    1  ZINC000541000201    0.1200
     26 O26        -9.4085    0.2325   52.8696 O.3     1  ZINC000541000201   -0.3200
     27 C27        -8.0250    0.5898   52.8555 C.3     1  ZINC000541000201    0.4100
     28 F28        -7.7403    1.3067   51.6882 F       1  ZINC000541000201   -0.2000
     29 F29        -7.7366    1.3826   53.9716 F       1  ZINC000541000201   -0.2000
     30 C30        -9.6931   -1.8445   53.9943 C.ar    1  ZINC000541000201   -0.1900
     31 C31       -10.1421   -2.5531   55.0919 C.ar    1  ZINC000541000201   -0.0500
     32 H32       -15.7373   -1.9294   57.6418 H       1  ZINC000541000201    0.1000
     33 H33       -15.2038   -2.8644   56.2241 H       1  ZINC000541000201    0.0600
     34 H34       -15.2041   -3.6163   57.8375 H       1  ZINC000541000201    0.0600
     35 H35       -11.9237   -1.3473   58.8524 H       1  ZINC000541000201    0.4100
     36 H36        -7.7851   -1.3557   60.7650 H       1  ZINC000541000201    0.1600
     37 H37        -7.6940    0.0725   62.7895 H       1  ZINC000541000201    0.1500
     38 H38       -11.7020    1.3829   64.3426 H       1  ZINC000541000201    0.1000
     39 H39       -10.7508    2.5155   66.2449 H       1  ZINC000541000201    0.0700
     40 H40        -9.7051    3.5455   65.2123 H       1  ZINC000541000201    0.0800
     41 H41       -12.7487    3.6831   65.5786 H       1  ZINC000541000201    0.0700
     42 H42       -11.5593    5.0205   65.6614 H       1  ZINC000541000201    0.0700
     43 H43       -13.0104    4.4246   63.3776 H       1  ZINC000541000201    0.0700
     44 H44       -11.3925    5.1810   63.3395 H       1  ZINC000541000201    0.0700
     45 H45       -10.5424    3.3119   62.3358 H       1  ZINC000541000201    0.0800
     46 H46       -12.1601    2.5555   62.3740 H       1  ZINC000541000201    0.0700
     47 H47       -11.9162   -0.2588   60.3374 H       1  ZINC000541000201    0.1600
     48 H48       -11.4010   -0.0052   56.9112 H       1  ZINC000541000201    0.1300
     49 H49       -10.5967    1.2659   54.9630 H       1  ZINC000541000201    0.1400
     50 H50        -7.4160   -0.3138   52.8844 H       1  ZINC000541000201    0.1900
     51 H51        -9.2142   -2.3618   53.1761 H       1  ZINC000541000201    0.1400
     52 H52       -10.0168   -3.6251   55.1302 H       1  ZINC000541000201    0.1400
@<TRIPOS>BOND
     1     1     2    1
     2     1    32    1
     3     1    33    1
     4     1    34    1
     5     2     3    1
     6     3     4    2
     7     3     5    1
     8     5     6    1
     9     5     7    1
    10     5    22    1
    11     7     8   am
    12     7    35    1
    13     8     9    2
    14     8    10    1
    15    10    21   ar
    16    10    11   ar
    17    11    12   ar
    18    11    36    1
    19    12    13   ar
    20    12    37    1
    21    13    14    1
    22    13    20   ar
    23    14    15    1
    24    15    19    1
    25    15    16    1
    26    15    38    1
    27    16    17    1
    28    16    39    1
    29    16    40    1
    30    17    18    1
    31    17    41    1
    32    17    42    1
    33    18    19    1
    34    18    43    1
    35    18    44    1
    36    19    45    1
    37    19    46    1
    38    20    21   ar
    39    21    47    1
    40    22    31   ar
    41    22    23   ar
    42    23    24   ar
    43    23    48    1
    44    24    25   ar
    45    24    49    1
    46    25    26    1
    47    25    30   ar
    48    26    27    1
    49    27    28    1
    50    27    29    1
    51    27    50    1
    52    30    31   ar
    53    30    51    1
    54    31    52    1
@<TRIPOS>SUBSTRUCTURE
     1 ZINC000541000201        1 TEMP              0 ****  ****    0 ROOT


##########                                Name:    ZINC000914736341
##########                DOCK_Rotatable_Bonds:                   7
##########                         Heavy_Atoms:                  27
##########                    Molecular_Weight:             384.905
##########                DOCK_Rotatable_Bonds:                   7
##########                       Formal_Charge:                0.02
##########                     HBond_Acceptors:                   5
##########                        HBond_Donors:                   1
##########                         Heavy_Atoms:                  27
##########                          Grid_Score:          -30.950260
##########                     Grid_vdw_energy:          -29.845236
##########                      Grid_es_energy:           -1.105024
##########           Internal_energy_repulsive:           27.688114

@<TRIPOS>MOLECULE
ZINC000914736341
 52 54 1 0 0
SMALL
USER_CHARGES


@<TRIPOS>ATOM
      1 C1         -8.7729    3.5781   55.4275 C.3     1  ZINC000914736341   -0.1400
      2 C2         -7.3338    3.1042   55.2144 C.3     1  ZINC000914736341   -0.0300
      3 C3         -6.3750    4.2799   55.4128 C.3     1  ZINC000914736341   -0.1400
      4 C4         -7.0052    2.0023   56.2236 C.3     1  ZINC000914736341    0.1300
      5 N5         -8.2480    1.3933   56.7038 N.am    1  ZINC000914736341   -0.7200
      6 C6         -8.2774    0.7769   57.9020 C.2     1  ZINC000914736341    0.5300
      7 O7         -7.2745    0.7251   58.5820 O.2     1  ZINC000914736341   -0.5300
      8 C8         -9.5564    0.1520   58.3968 C.3     1  ZINC000914736341   -0.1200
      9 H9        -10.2056    0.9023   58.8480 H       1  ZINC000914736341    0.1200
     10 C10        -9.2632   -0.9958   59.3905 C.3     1  ZINC000914736341   -0.1400
     11 C11       -10.3198   -2.0333   59.0810 C.2     1  ZINC000914736341    0.5200
     12 O12       -10.6199   -2.9571   59.8073 O.2     1  ZINC000914736341   -0.5200
     13 N13       -10.8777   -1.7822   57.8841 N.am    1  ZINC000914736341   -0.6100
     14 C14       -11.9426   -2.5890   57.2830 C.3     1  ZINC000914736341    0.1600
     15 C15       -13.2271   -2.3698   58.0400 C.ar    1  ZINC000914736341   -0.1000
     16 C16       -13.4653   -1.1585   58.6610 C.ar    1  ZINC000914736341   -0.0800
     17 C17       -14.6436   -0.9573   59.3556 C.ar    1  ZINC000914736341   -0.1100
     18 C18       -15.5840   -1.9676   59.4298 C.ar    1  ZINC000914736341   -0.1000
     19 C19       -15.3469   -3.1797   58.8090 C.ar    1  ZINC000914736341   -0.1100
     20 C20       -14.1708   -3.3795   58.1087 C.ar    1  ZINC000914736341   -0.0300
     21 Cl21      -13.8724   -4.9015   57.3288 Cl      1  ZINC000914736341   -0.0600
     22 C22       -10.2838   -0.5950   57.2570 C.3     1  ZINC000914736341    0.1000
     23 C23        -7.1845    2.5648   53.8152 C.ar    1  ZINC000914736341   -0.0700
     24 C24        -7.6249    1.2893   53.5155 C.ar    1  ZINC000914736341   -0.1200
     25 C25        -7.4880    0.7945   52.2320 C.ar    1  ZINC000914736341   -0.1200
     26 C26        -6.9108    1.5755   51.2482 C.ar    1  ZINC000914736341   -0.1200
     27 C27        -6.4712    2.8513   51.5477 C.ar    1  ZINC000914736341   -0.1200
     28 C28        -6.6120    3.3476   52.8301 C.ar    1  ZINC000914736341   -0.1100
     29 H29        -9.0071    4.3633   54.7085 H       1  ZINC000914736341    0.0600
     30 H30        -9.4559    2.7406   55.2862 H       1  ZINC000914736341    0.0600
     31 H31        -8.8809    3.9683   56.4395 H       1  ZINC000914736341    0.0600
     32 H32        -6.4830    4.6701   56.4248 H       1  ZINC000914736341    0.0600
     33 H33        -5.3498    3.9423   55.2611 H       1  ZINC000914736341    0.0600
     34 H34        -6.6092    5.0651   54.6938 H       1  ZINC000914736341    0.0600
     35 H35        -6.3896    1.2415   55.7435 H       1  ZINC000914736341    0.0700
     36 H36        -6.4617    2.4311   57.0656 H       1  ZINC000914736341    0.0700
     37 H37        -9.0498    1.4337   56.1594 H       1  ZINC000914736341    0.4000
     38 H38        -8.2668   -1.4033   59.2195 H       1  ZINC000914736341    0.1100
     39 H39        -9.3620   -0.6454   60.4179 H       1  ZINC000914736341    0.1100
     40 H40       -12.0790   -2.2934   56.2426 H       1  ZINC000914736341    0.1000
     41 H41       -11.6694   -3.6432   57.3284 H       1  ZINC000914736341    0.1000
     42 H42       -12.7306   -0.3690   58.6041 H       1  ZINC000914736341    0.1400
     43 H43       -14.8294   -0.0104   59.8407 H       1  ZINC000914736341    0.1300
     44 H44       -16.5040   -1.8101   59.9731 H       1  ZINC000914736341    0.1300
     45 H45       -16.0817   -3.9691   58.8670 H       1  ZINC000914736341    0.1400
     46 H46       -11.0632    0.0352   56.8288 H       1  ZINC000914736341    0.1000
     47 H47        -9.5719   -0.8916   56.4867 H       1  ZINC000914736341    0.0900
     48 H48        -8.0758    0.6792   54.2842 H       1  ZINC000914736341    0.1300
     49 H49        -7.8315   -0.2023   51.9981 H       1  ZINC000914736341    0.1200
     50 H50        -6.8031    1.1886   50.2456 H       1  ZINC000914736341    0.1200
     51 H51        -6.0200    3.4612   50.7791 H       1  ZINC000914736341    0.1200
     52 H52        -6.2686    4.3445   53.0641 H       1  ZINC000914736341    0.1200
@<TRIPOS>BOND
     1     1     2    1
     2     1    29    1
     3     1    30    1
     4     1    31    1
     5     2     3    1
     6     2     4    1
     7     2    23    1
     8     3    32    1
     9     3    33    1
    10     3    34    1
    11     4     5    1
    12     4    35    1
    13     4    36    1
    14     5     6   am
    15     5    37    1
    16     6     7    2
    17     6     8    1
    18     8     9    1
    19     8    22    1
    20     8    10    1
    21    10    11    1
    22    10    38    1
    23    10    39    1
    24    11    12    2
    25    11    13   am
    26    13    14    1
    27    13    22    1
    28    14    15    1
    29    14    40    1
    30    14    41    1
    31    15    20   ar
    32    15    16   ar
    33    16    17   ar
    34    16    42    1
    35    17    18   ar
    36    17    43    1
    37    18    19   ar
    38    18    44    1
    39    19    20   ar
    40    19    45    1
    41    20    21    1
    42    22    46    1
    43    22    47    1
    44    23    28   ar
    45    23    24   ar
    46    24    25   ar
    47    24    48    1
    48    25    26   ar
    49    25    49    1
    50    26    27   ar
    51    26    50    1
    52    27    28   ar
    53    27    51    1
    54    28    52    1
@<TRIPOS>SUBSTRUCTURE
     1 ZINC000914736341        1 TEMP              0 ****  ****    0 ROOT


##########                                Name:    ZINC000671418508
##########                DOCK_Rotatable_Bonds:                   9
##########                         Heavy_Atoms:                  28
##########                    Molecular_Weight:             405.884
##########                DOCK_Rotatable_Bonds:                   9
##########                       Formal_Charge:         -1.3411e-07
##########                     HBond_Acceptors:                   9
##########                        HBond_Donors:                   2
##########                         Heavy_Atoms:                  28
##########                          Grid_Score:          -30.921511
##########                     Grid_vdw_energy:          -29.119093
##########                      Grid_es_energy:           -1.802417
##########           Internal_energy_repulsive:           22.636391

@<TRIPOS>MOLECULE
ZINC000671418508
 52 54 1 0 0
SMALL
USER_CHARGES


@<TRIPOS>ATOM
      1 C1         -9.2049    0.0982   66.9938 C.3     1  ZINC000671418508    0.1000
      2 N2         -8.7907    0.1337   65.5889 N.pl3   1  ZINC000671418508   -0.3700
      3 C3         -9.4098    0.8051   64.5954 C.2     1  ZINC000671418508    0.0800
      4 C4         -8.7183    0.5824   63.4538 C.2     1  ZINC000671418508   -0.2700
      5 C5         -9.0511    1.1378   62.0930 C.3     1  ZINC000671418508    0.2000
      6 N6         -9.2380    0.0344   61.1476 N.am    1  ZINC000671418508   -0.6900
      7 C7        -10.4786   -0.3049   60.7447 C.2     1  ZINC000671418508    0.5100
      8 O8        -11.4408    0.3026   61.1661 O.2     1  ZINC000671418508   -0.5100
      9 C9        -10.6691   -1.4294   59.7789 C.2     1  ZINC000671418508    0.5100
     10 O10       -11.2877   -2.4183   60.1134 O.2     1  ZINC000671418508   -0.5200
     11 N11       -10.1538   -1.3451   58.5363 N.am    1  ZINC000671418508   -0.5800
     12 C12       -10.3348   -2.4376   57.5683 C.3     1  ZINC000671418508    0.0800
     13 C13       -10.8795   -1.8465   56.2637 C.3     1  ZINC000671418508    0.0400
     14 N14        -9.9978   -0.7600   55.8164 N.3     1  ZINC000671418508   -0.5200
     15 C15       -10.3869   -0.2814   54.4832 C.3     1  ZINC000671418508    0.1300
     16 H16       -11.4556   -0.0674   54.4715 H       1  ZINC000671418508    0.0600
     17 C17       -10.0709   -1.3577   53.4426 C.3     1  ZINC000671418508    0.0900
     18 O18       -10.5162   -0.9221   52.1565 O.3     1  ZINC000671418508   -0.5500
     19 C19        -9.6196    0.9738   54.1564 C.ar    1  ZINC000671418508   -0.0800
     20 C20       -10.2833    2.0791   53.6573 C.ar    1  ZINC000671418508   -0.0600
     21 C21        -9.5801    3.2306   53.3574 C.ar    1  ZINC000671418508   -0.1200
     22 C22        -8.2118    3.2770   53.5569 C.ar    1  ZINC000671418508   -0.0300
     23 Cl23       -7.3280    4.7230   53.1809 Cl      1  ZINC000671418508   -0.0700
     24 C24        -7.5481    2.1706   54.0564 C.ar    1  ZINC000671418508   -0.1200
     25 C25        -8.2533    1.0215   54.3612 C.ar    1  ZINC000671418508   -0.1100
     26 C26        -9.9771    0.3430   56.7864 C.3     1  ZINC000671418508    0.0400
     27 C27        -9.4007   -0.1557   58.1105 C.3     1  ZINC000671418508    0.1100
     28 C28        -7.6398   -0.2537   63.7602 C.2     1  ZINC000671418508    0.0700
     29 N29        -7.6787   -0.5184   65.0409 N.2     1  ZINC000671418508   -0.2900
     30 H30        -8.7279    0.9161   67.5340 H       1  ZINC000671418508    0.0800
     31 H31       -10.2879    0.2045   67.0560 H       1  ZINC000671418508    0.0900
     32 H32        -8.9070   -0.8522   67.4365 H       1  ZINC000671418508    0.0900
     33 H33       -10.2983    1.4113   64.6938 H       1  ZINC000671418508    0.1800
     34 H34        -9.9685    1.7234   62.1540 H       1  ZINC000671418508    0.0800
     35 H35        -8.2354    1.7750   61.7512 H       1  ZINC000671418508    0.0800
     36 H36        -8.4690   -0.4520   60.8117 H       1  ZINC000671418508    0.4100
     37 H37        -9.3767   -2.9216   57.3792 H       1  ZINC000671418508    0.0800
     38 H38       -11.0435   -3.1645   57.9650 H       1  ZINC000671418508    0.1400
     39 H39       -10.9159   -2.6233   55.4999 H       1  ZINC000671418508    0.0900
     40 H40       -11.8826   -1.4548   56.4327 H       1  ZINC000671418508    0.0400
     41 H41        -8.9953   -1.5317   53.4150 H       1  ZINC000671418508    0.0500
     42 H42       -10.5819   -2.2827   53.7099 H       1  ZINC000671418508    0.0500
     43 H43       -10.0237   -1.3070   51.4187 H       1  ZINC000671418508    0.3800
     44 H44       -11.3513    2.0427   53.5013 H       1  ZINC000671418508    0.1400
     45 H45       -10.0986    4.0938   52.9672 H       1  ZINC000671418508    0.1300
     46 H46        -6.4800    2.2060   54.2119 H       1  ZINC000671418508    0.1300
     47 H47        -7.7354    0.1578   54.7516 H       1  ZINC000671418508    0.1300
     48 H48        -9.3591    1.1542   56.4016 H       1  ZINC000671418508    0.0900
     49 H49       -10.9927    0.7042   56.9481 H       1  ZINC000671418508    0.0400
     50 H50        -9.4891    0.6254   58.8656 H       1  ZINC000671418508    0.1000
     51 H51        -8.3523   -0.4221   57.9763 H       1  ZINC000671418508    0.0800
     52 H52        -6.8997   -0.6144   63.0612 H       1  ZINC000671418508    0.1900
@<TRIPOS>BOND
     1     1     2    1
     2     1    30    1
     3     1    31    1
     4     1    32    1
     5     2    29    1
     6     2     3    1
     7     3     4    2
     8     3    33    1
     9     4     5    1
    10     4    28    1
    11     5     6    1
    12     5    34    1
    13     5    35    1
    14     6     7   am
    15     6    36    1
    16     7     8    2
    17     7     9    1
    18     9    10    2
    19     9    11   am
    20    11    27    1
    21    11    12    1
    22    12    13    1
    23    12    37    1
    24    12    38    1
    25    13    14    1
    26    13    39    1
    27    13    40    1
    28    14    15    1
    29    14    26    1
    30    15    16    1
    31    15    17    1
    32    15    19    1
    33    17    18    1
    34    17    41    1
    35    17    42    1
    36    18    43    1
    37    19    25   ar
    38    19    20   ar
    39    20    21   ar
    40    20    44    1
    41    21    22   ar
    42    21    45    1
    43    22    23    1
    44    22    24   ar
    45    24    25   ar
    46    24    46    1
    47    25    47    1
    48    26    27    1
    49    26    48    1
    50    26    49    1
    51    27    50    1
    52    27    51    1
    53    28    29    2
    54    28    52    1
@<TRIPOS>SUBSTRUCTURE
     1 ZINC000671418508        1 TEMP              0 ****  ****    0 ROOT


##########                                Name:    ZINC000263872566
##########                DOCK_Rotatable_Bonds:                   9
##########                         Heavy_Atoms:                  26
##########                    Molecular_Weight:             362.469
##########                DOCK_Rotatable_Bonds:                   9
##########                       Formal_Charge:           0.0300001
##########                     HBond_Acceptors:                   6
##########                        HBond_Donors:                   2
##########                         Heavy_Atoms:                  26
##########                          Grid_Score:          -30.903379
##########                     Grid_vdw_energy:          -29.116005
##########                      Grid_es_energy:           -1.787375
##########           Internal_energy_repulsive:           22.535803

@<TRIPOS>MOLECULE
ZINC000263872566
 56 57 1 0 0
SMALL
USER_CHARGES


@<TRIPOS>ATOM
      1 C1        -15.6666   -2.5529   57.2884 C.3     1  ZINC000263872566   -0.1800
      2 C2        -15.0307   -3.2929   58.4669 C.3     1  ZINC000263872566    0.1400
      3 H3        -15.6574   -3.1747   59.3510 H       1  ZINC000263872566    0.0700
      4 O4        -14.9120   -4.6811   58.1496 O.3     1  ZINC000263872566   -0.5600
      5 C5        -13.6634   -2.7214   58.7403 C.ar    1  ZINC000263872566   -0.0800
      6 C6        -13.5212   -1.6536   59.6067 C.ar    1  ZINC000263872566   -0.0900
      7 C7        -12.2671   -1.1292   59.8575 C.ar    1  ZINC000263872566   -0.1000
      8 C8        -11.1550   -1.6730   59.2424 C.ar    1  ZINC000263872566   -0.1100
      9 C9         -9.7876   -1.1012   59.5156 C.3     1  ZINC000263872566    0.1800
     10 N10        -9.5851    0.0942   58.6932 N.am    1  ZINC000263872566   -0.7400
     11 C11        -8.3409    0.4505   58.3172 C.2     1  ZINC000263872566    0.7100
     12 O12        -7.3865   -0.2202   58.6604 O.2     1  ZINC000263872566   -0.5900
     13 N13        -8.1545    1.5503   57.5606 N.am    1  ZINC000263872566   -0.6300
     14 C14        -6.8048    1.9481   57.1378 C.3     1  ZINC000263872566    0.1100
     15 C15        -6.7941    2.1142   55.6150 C.3     1  ZINC000263872566   -0.1200
     16 C16        -7.8957    3.0942   55.2049 C.3     1  ZINC000263872566   -0.0800
     17 C17        -7.8661    3.2862   53.7105 C.2     1  ZINC000263872566    0.4700
     18 O18        -8.9004    3.3728   53.0919 O.2     1  ZINC000263872566   -0.5000
     19 O19        -6.6907    3.3610   53.0666 O.3     1  ZINC000263872566   -0.3500
     20 C20        -6.4937    2.4575   51.9471 C.3     1  ZINC000263872566    0.1200
     21 C21        -4.9953    2.2681   51.7022 C.3     1  ZINC000263872566   -0.1800
     22 C22        -7.1336    1.1046   52.2650 C.3     1  ZINC000263872566   -0.1400
     23 C23        -7.1446    3.0478   50.6947 C.3     1  ZINC000263872566   -0.1800
     24 C24        -9.2585    2.5354   55.6203 C.3     1  ZINC000263872566   -0.1300
     25 C25        -9.2978    2.3708   57.1381 C.3     1  ZINC000263872566    0.1300
     26 C26       -11.2969   -2.7418   58.3772 C.ar    1  ZINC000263872566   -0.1000
     27 C27       -12.5506   -3.2685   58.1293 C.ar    1  ZINC000263872566   -0.1100
     28 H28       -15.0400   -2.6711   56.4045 H       1  ZINC000263872566    0.0700
     29 H29       -16.6556   -2.9663   57.0908 H       1  ZINC000263872566    0.0600
     30 H30       -15.7572   -1.4940   57.5305 H       1  ZINC000263872566    0.0700
     31 H31       -15.7556   -5.1154   57.9624 H       1  ZINC000263872566    0.3800
     32 H32       -14.3901   -1.2287   60.0872 H       1  ZINC000263872566    0.1300
     33 H33       -12.1561   -0.2945   60.5338 H       1  ZINC000263872566    0.1300
     34 H34        -9.7092   -0.8348   60.5696 H       1  ZINC000263872566    0.0800
     35 H35        -9.0279   -1.8434   59.2709 H       1  ZINC000263872566    0.0800
     36 H36       -10.3464    0.6293   58.4194 H       1  ZINC000263872566    0.4000
     37 H37        -6.5377    2.8933   57.6104 H       1  ZINC000263872566    0.0800
     38 H38        -6.0896    1.1778   57.4265 H       1  ZINC000263872566    0.0800
     39 H39        -5.8259    2.5017   55.2981 H       1  ZINC000263872566    0.0900
     40 H40        -6.9721    1.1482   55.1424 H       1  ZINC000263872566    0.0800
     41 H41        -7.7309    4.0525   55.6975 H       1  ZINC000263872566    0.1100
     42 H42        -4.5317    1.8475   52.5945 H       1  ZINC000263872566    0.0600
     43 H43        -4.8475    1.5898   50.8618 H       1  ZINC000263872566    0.0700
     44 H44        -4.5395    3.2320   51.4757 H       1  ZINC000263872566    0.0800
     45 H45        -8.2009    1.2395   52.4395 H       1  ZINC000263872566    0.0700
     46 H46        -6.9856    0.4263   51.4246 H       1  ZINC000263872566    0.0800
     47 H47        -6.6698    0.6840   53.1573 H       1  ZINC000263872566    0.0700
     48 H48        -6.6887    4.0116   50.4681 H       1  ZINC000263872566    0.0800
     49 H49        -6.9968    2.3696   49.8543 H       1  ZINC000263872566    0.0700
     50 H50        -8.2120    3.1827   50.8691 H       1  ZINC000263872566    0.0600
     51 H51       -10.0443    3.2229   55.3072 H       1  ZINC000263872566    0.0900
     52 H52        -9.4134    1.5655   55.1477 H       1  ZINC000263872566    0.0700
     53 H53       -10.2274    1.8816   57.4287 H       1  ZINC000263872566    0.1000
     54 H54        -9.2332    3.3495   57.6136 H       1  ZINC000263872566    0.0700
     55 H55       -10.4280   -3.1668   57.8969 H       1  ZINC000263872566    0.1300
     56 H56       -12.6616   -4.1035   57.4534 H       1  ZINC000263872566    0.1300
@<TRIPOS>BOND
     1     1     2    1
     2     1    28    1
     3     1    29    1
     4     1    30    1
     5     2     3    1
     6     2     4    1
     7     2     5    1
     8     4    31    1
     9     5    27   ar
    10     5     6   ar
    11     6     7   ar
    12     6    32    1
    13     7     8   ar
    14     7    33    1
    15     8     9    1
    16     8    26   ar
    17     9    10    1
    18     9    34    1
    19     9    35    1
    20    10    11   am
    21    10    36    1
    22    11    12    2
    23    11    13   am
    24    13    25    1
    25    13    14    1
    26    14    15    1
    27    14    37    1
    28    14    38    1
    29    15    16    1
    30    15    39    1
    31    15    40    1
    32    16    17    1
    33    16    24    1
    34    16    41    1
    35    17    18    2
    36    17    19    1
    37    19    20    1
    38    20    21    1
    39    20    22    1
    40    20    23    1
    41    21    42    1
    42    21    43    1
    43    21    44    1
    44    22    45    1
    45    22    46    1
    46    22    47    1
    47    23    48    1
    48    23    49    1
    49    23    50    1
    50    24    25    1
    51    24    51    1
    52    24    52    1
    53    25    53    1
    54    25    54    1
    55    26    27   ar
    56    26    55    1
    57    27    56    1
@<TRIPOS>SUBSTRUCTURE
     1 ZINC000263872566        1 TEMP              0 ****  ****    0 ROOT


##########                                Name:    ZINC001061022329
##########                DOCK_Rotatable_Bonds:                   7
##########                         Heavy_Atoms:                  27
##########                    Molecular_Weight:             374.523
##########                DOCK_Rotatable_Bonds:                   7
##########                       Formal_Charge:           0.0800005
##########                     HBond_Acceptors:                   5
##########                        HBond_Donors:                   0
##########                         Heavy_Atoms:                  27
##########                          Grid_Score:          -30.898411
##########                     Grid_vdw_energy:          -29.967443
##########                      Grid_es_energy:           -0.930966
##########           Internal_energy_repulsive:           39.480881

@<TRIPOS>MOLECULE
ZINC001061022329
 61 64 1 0 0
SMALL
USER_CHARGES


@<TRIPOS>ATOM
      1 C1        -15.4411   -1.4730   57.8481 C.3     1  ZINC001061022329   -0.1500
      2 C2        -15.2672   -1.9474   59.2924 C.3     1  ZINC001061022329   -0.1200
      3 C3        -14.5376   -3.2922   59.3031 C.3     1  ZINC001061022329    0.0800
      4 H4        -15.0387   -3.9719   59.9924 H       1  ZINC001061022329    0.0600
      5 C5        -14.5520   -3.8915   57.8954 C.3     1  ZINC001061022329   -0.1800
      6 O6        -13.1861   -3.0976   59.7243 O.3     1  ZINC001061022329   -0.3500
      7 C7        -12.4026   -2.3152   58.8210 C.3     1  ZINC001061022329    0.0500
      8 C8        -11.0854   -1.9709   59.4668 C.2     1  ZINC001061022329    0.5200
      9 O9        -10.8445   -2.3511   60.5931 O.2     1  ZINC001061022329   -0.5100
     10 N10       -10.1749   -1.2405   58.7930 N.am    1  ZINC001061022329   -0.6100
     11 C11        -8.8846   -0.9057   59.4097 C.3     1  ZINC001061022329    0.1100
     12 C12        -8.7061    0.6170   59.3843 C.3     1  ZINC001061022329   -0.1200
     13 C13        -8.9215    1.1218   57.9596 C.3     1  ZINC001061022329   -0.0900
     14 C14        -8.5523    2.5992   57.7683 C.3     1  ZINC001061022329    0.1200
     15 N15        -7.9327    2.1725   56.4977 N.am    1  ZINC001061022329   -0.6400
     16 C16        -7.6422    2.7895   55.3352 C.2     1  ZINC001061022329    0.5400
     17 O17        -7.9054    3.9644   55.1899 O.2     1  ZINC001061022329   -0.5300
     18 C18        -6.9901    2.0193   54.2159 C.3     1  ZINC001061022329   -0.0900
     19 H19        -6.4569    1.1623   54.6274 H       1  ZINC001061022329    0.1000
     20 C20        -6.0036    2.9279   53.4790 C.3     1  ZINC001061022329   -0.1000
     21 C21        -6.4175    3.0480   52.0067 C.3     1  ZINC001061022329   -0.0600
     22 H22        -5.7573    3.7327   51.4743 H       1  ZINC001061022329    0.0800
     23 C23        -7.8555    3.5437   51.9657 C.2     1  ZINC001061022329   -0.1800
     24 C24        -8.7135    2.7535   52.6066 C.2     1  ZINC001061022329   -0.1300
     25 C25        -8.0660    1.5302   53.2377 C.3     1  ZINC001061022329   -0.0400
     26 H26        -8.8110    0.9159   53.7432 H       1  ZINC001061022329    0.0900
     27 C27        -7.3761    0.7382   52.1185 C.3     1  ZINC001061022329   -0.1100
     28 C28        -6.3726    1.6488   51.3773 C.3     1  ZINC001061022329   -0.1100
     29 C29        -7.7581    0.7993   57.0115 C.3     1  ZINC001061022329    0.1100
     30 C30       -10.2908    0.7552   57.3926 C.3     1  ZINC001061022329   -0.1100
     31 C31       -10.4565   -0.7732   57.4293 C.3     1  ZINC001061022329    0.1100
     32 H32       -14.4620   -1.3589   57.3828 H       1  ZINC001061022329    0.0500
     33 H33       -16.0242   -2.2072   57.2923 H       1  ZINC001061022329    0.0600
     34 H34       -15.9608   -0.5150   57.8405 H       1  ZINC001061022329    0.0600
     35 H35       -14.6840   -1.2131   59.8482 H       1  ZINC001061022329    0.0800
     36 H36       -16.2463   -2.0614   59.7577 H       1  ZINC001061022329    0.0700
     37 H37       -14.0322   -4.8494   57.9031 H       1  ZINC001061022329    0.0600
     38 H38       -15.5829   -4.0399   57.5742 H       1  ZINC001061022329    0.0700
     39 H39       -14.0508   -3.2118   57.2062 H       1  ZINC001061022329    0.0700
     40 H40       -12.2224   -2.8847   57.9092 H       1  ZINC001061022329    0.0800
     41 H41       -12.9382   -1.3978   58.5764 H       1  ZINC001061022329    0.0800
     42 H42        -8.8701   -1.2582   60.4411 H       1  ZINC001061022329    0.0900
     43 H43        -8.0779   -1.3777   58.8487 H       1  ZINC001061022329    0.0800
     44 H44        -9.4348    1.0805   60.0492 H       1  ZINC001061022329    0.0800
     45 H45        -7.6982    0.8712   59.7125 H       1  ZINC001061022329    0.0800
     46 H46        -9.4137    3.2546   57.6392 H       1  ZINC001061022329    0.0800
     47 H47        -7.8381    2.9726   58.5022 H       1  ZINC001061022329    0.0900
     48 H48        -6.0069    3.9161   53.9389 H       1  ZINC001061022329    0.0700
     49 H49        -5.0020    2.5022   53.5410 H       1  ZINC001061022329    0.0700
     50 H50        -8.1523    4.4523   51.4631 H       1  ZINC001061022329    0.1200
     51 H51        -9.7712    2.9617   52.6728 H       1  ZINC001061022329    0.1200
     52 H52        -6.8391   -0.1068   52.5494 H       1  ZINC001061022329    0.0700
     53 H53        -8.1260    0.3721   51.4172 H       1  ZINC001061022329    0.0700
     54 H54        -6.6515    1.7162   50.3258 H       1  ZINC001061022329    0.0700
     55 H55        -5.3705    1.2282   51.4608 H       1  ZINC001061022329    0.0700
     56 H56        -6.8079    0.6377   57.5206 H       1  ZINC001061022329    0.0900
     57 H57        -7.9882    0.0238   56.2809 H       1  ZINC001061022329    0.0800
     58 H58       -11.0710    1.2232   57.9928 H       1  ZINC001061022329    0.0800
     59 H59       -10.3638    1.1038   56.3624 H       1  ZINC001061022329    0.0800
     60 H60        -9.7599   -1.2332   56.7285 H       1  ZINC001061022329    0.0700
     61 H61       -11.4787   -1.0366   57.1576 H       1  ZINC001061022329    0.1000
@<TRIPOS>BOND
     1     1     2    1
     2     1    32    1
     3     1    33    1
     4     1    34    1
     5     2     3    1
     6     2    35    1
     7     2    36    1
     8     3     4    1
     9     3     5    1
    10     3     6    1
    11     5    37    1
    12     5    38    1
    13     5    39    1
    14     6     7    1
    15     7     8    1
    16     7    40    1
    17     7    41    1
    18     8     9    2
    19     8    10   am
    20    10    31    1
    21    10    11    1
    22    11    12    1
    23    11    42    1
    24    11    43    1
    25    12    13    1
    26    12    44    1
    27    12    45    1
    28    13    29    1
    29    13    14    1
    30    13    30    1
    31    14    15    1
    32    14    46    1
    33    14    47    1
    34    15    16   am
    35    15    29    1
    36    16    17    2
    37    16    18    1
    38    18    19    1
    39    18    25    1
    40    18    20    1
    41    20    21    1
    42    20    48    1
    43    20    49    1
    44    21    22    1
    45    21    28    1
    46    21    23    1
    47    23    24    2
    48    23    50    1
    49    24    25    1
    50    24    51    1
    51    25    26    1
    52    25    27    1
    53    27    28    1
    54    27    52    1
    55    27    53    1
    56    28    54    1
    57    28    55    1
    58    29    56    1
    59    29    57    1
    60    30    31    1
    61    30    58    1
    62    30    59    1
    63    31    60    1
    64    31    61    1
@<TRIPOS>SUBSTRUCTURE
     1 ZINC001061022329        1 TEMP              0 ****  ****    0 ROOT


##########                                Name:    ZINC000624498741
##########                DOCK_Rotatable_Bonds:                   7
##########                         Heavy_Atoms:                  27
##########                    Molecular_Weight:             379.339
##########                DOCK_Rotatable_Bonds:                   7
##########                       Formal_Charge:           0.0300003
##########                     HBond_Acceptors:                   9
##########                        HBond_Donors:                   0
##########                         Heavy_Atoms:                  27
##########                          Grid_Score:          -30.884127
##########                     Grid_vdw_energy:          -28.914480
##########                      Grid_es_energy:           -1.969647
##########           Internal_energy_repulsive:           12.675825

@<TRIPOS>MOLECULE
ZINC000624498741
 43 45 1 0 0
SMALL
USER_CHARGES


@<TRIPOS>ATOM
      1 C1         -6.3057    2.6779   55.2855 C.3     1  ZINC000624498741   -0.1100
      2 C2         -7.1992    1.6158   54.6984 C.ar    1  ZINC000624498741   -0.0900
      3 C3         -8.0993    0.9525   55.5027 C.ar    1  ZINC000624498741   -0.0400
      4 C4         -8.9274   -0.0316   54.9574 C.ar    1  ZINC000624498741   -0.0500
      5 C5         -9.8941   -0.7448   55.8161 C.2     1  ZINC000624498741    0.2300
      6 N6         -9.6779   -1.2023   57.0375 N.2     1  ZINC000624498741   -0.4700
      7 C7        -10.8324   -1.7714   57.4177 C.2     1  ZINC000624498741    0.1800
      8 C8        -11.1005   -2.4414   58.7406 C.3     1  ZINC000624498741   -0.0300
      9 C9        -10.2802   -1.7559   59.8350 C.3     1  ZINC000624498741   -0.1300
     10 C10       -10.8970   -0.3933   60.1570 C.3     1  ZINC000624498741    0.0900
     11 N11       -10.3576    0.0993   61.4268 N.am    1  ZINC000624498741   -0.5000
     12 C12        -9.1202   -0.2906   61.8267 C.2     1  ZINC000624498741    0.1300
     13 C13        -8.6006    0.1509   62.9959 C.2     1  ZINC000624498741   -0.2300
     14 C14        -9.3427    1.0205   63.8074 C.2     1  ZINC000624498741   -0.0200
     15 C15       -10.5856    1.4115   63.4038 C.2     1  ZINC000624498741   -0.2400
     16 C16       -11.0925    0.9381   62.1816 C.2     1  ZINC000624498741    0.5100
     17 O17       -12.2032    1.2801   61.8083 O.2     1  ZINC000624498741   -0.5500
     18 N18       -11.6779   -1.6395   56.4385 N.2     1  ZINC000624498741   -0.3700
     19 O19       -11.1651   -1.0499   55.5110 O.3     1  ZINC000624498741    0.0900
     20 C20        -8.8390   -0.3388   53.5978 C.ar    1  ZINC000624498741   -0.0200
     21 C21        -7.9360    0.3293   52.8000 C.ar    1  ZINC000624498741   -0.1900
     22 C22        -7.1179    1.3110   53.3451 C.ar    1  ZINC000624498741    0.1300
     23 O23        -6.2293    1.9670   52.5554 O.3     1  ZINC000624498741   -0.3000
     24 C24        -6.7518    2.9799   51.6934 C.3     1  ZINC000624498741    0.6000
     25 F25        -5.7860    3.9739   51.5028 F       1  ZINC000624498741   -0.1600
     26 F26        -7.0881    2.4138   50.4590 F       1  ZINC000624498741   -0.1300
     27 F27        -7.8929    3.5436   52.2742 F       1  ZINC000624498741   -0.1600
     28 H28        -6.8030    3.6459   55.2238 H       1  ZINC000624498741    0.0800
     29 H29        -6.0981    2.4420   56.3292 H       1  ZINC000624498741    0.0800
     30 H30        -5.3697    2.7142   54.7280 H       1  ZINC000624498741    0.0800
     31 H31        -8.1645    1.1926   56.5537 H       1  ZINC000624498741    0.1500
     32 H32       -12.1613   -2.3634   58.9790 H       1  ZINC000624498741    0.1000
     33 H33       -10.8183   -3.4925   58.6794 H       1  ZINC000624498741    0.1000
     34 H34       -10.2807   -2.3759   60.7317 H       1  ZINC000624498741    0.0800
     35 H35        -9.2558   -1.6183   59.4890 H       1  ZINC000624498741    0.0800
     36 H36       -10.6555    0.3119   59.3617 H       1  ZINC000624498741    0.1100
     37 H37       -11.9795   -0.4942   60.2368 H       1  ZINC000624498741    0.1000
     38 H38        -8.5443   -0.9604   61.2053 H       1  ZINC000624498741    0.1600
     39 H39        -7.6154   -0.1669   63.3038 H       1  ZINC000624498741    0.1500
     40 H40        -8.9349    1.3767   64.7420 H       1  ZINC000624498741    0.1400
     41 H41       -11.1724    2.0810   64.0153 H       1  ZINC000624498741    0.1500
     42 H42        -9.4771   -1.0993   53.1726 H       1  ZINC000624498741    0.1500
     43 H43        -7.8667    0.0921   51.7486 H       1  ZINC000624498741    0.1500
@<TRIPOS>BOND
     1     1     2    1
     2     1    28    1
     3     1    29    1
     4     1    30    1
     5     2    22   ar
     6     2     3   ar
     7     3     4   ar
     8     3    31    1
     9     4     5    1
    10     4    20   ar
    11     5    19    1
    12     5     6    2
    13     6     7    1
    14     7     8    1
    15     7    18    2
    16     8     9    1
    17     8    32    1
    18     8    33    1
    19     9    10    1
    20     9    34    1
    21     9    35    1
    22    10    11    1
    23    10    36    1
    24    10    37    1
    25    11    16   am
    26    11    12    1
    27    12    13    2
    28    12    38    1
    29    13    14    1
    30    13    39    1
    31    14    15    2
    32    14    40    1
    33    15    16    1
    34    15    41    1
    35    16    17    2
    36    18    19    1
    37    20    21   ar
    38    20    42    1
    39    21    22   ar
    40    21    43    1
    41    22    23    1
    42    23    24    1
    43    24    25    1
    44    24    26    1
    45    24    27    1
@<TRIPOS>SUBSTRUCTURE
     1 ZINC000624498741        1 TEMP              0 ****  ****    0 ROOT


##########                                Name:    ZINC001272744746
##########                DOCK_Rotatable_Bonds:                   6
##########                         Heavy_Atoms:                  25
##########                    Molecular_Weight:             348.417
##########                DOCK_Rotatable_Bonds:                   6
##########                       Formal_Charge:           0.0299999
##########                     HBond_Acceptors:                   6
##########                        HBond_Donors:                   1
##########                         Heavy_Atoms:                  25
##########                          Grid_Score:          -30.866096
##########                     Grid_vdw_energy:          -30.913738
##########                      Grid_es_energy:            0.047643
##########           Internal_energy_repulsive:           25.507608

@<TRIPOS>MOLECULE
ZINC001272744746
 50 52 1 0 0
SMALL
USER_CHARGES


@<TRIPOS>ATOM
      1 C1        -15.1848   -2.3269   60.5536 C.2     1  ZINC001272744746   -0.1700
      2 C2        -15.2507   -2.1315   59.2600 C.2     1  ZINC001272744746   -0.1700
      3 C3        -14.7546   -3.1923   58.3114 C.3     1  ZINC001272744746    0.1500
      4 N4        -13.3941   -2.8630   57.8789 N.am    1  ZINC001272744746   -0.6100
      5 C5        -12.6403   -1.6880   58.3366 C.3     1  ZINC001272744746    0.0700
      6 C6        -11.1744   -1.9768   57.9706 C.3     1  ZINC001272744746    0.1100
      7 C7        -11.3132   -2.9690   56.8015 C.3     1  ZINC001272744746   -0.1500
      8 C8        -12.6726   -3.6006   57.0162 C.2     1  ZINC001272744746    0.5200
      9 O9        -13.0577   -4.6190   56.4820 O.2     1  ZINC001272744746   -0.5200
     10 C10       -10.4487   -2.6273   59.1402 C.3     1  ZINC001272744746   -0.1000
     11 C11       -10.3446   -1.6244   60.2944 C.3     1  ZINC001272744746   -0.1200
     12 C12        -9.6419   -0.3588   59.7954 C.3     1  ZINC001272744746   -0.1200
     13 C13       -10.4278    0.2302   58.6220 C.3     1  ZINC001272744746    0.0500
     14 N14       -10.5001   -0.7574   57.5357 N.3     1  ZINC001272744746   -0.5100
     15 C15       -11.1540   -0.1885   56.3496 C.3     1  ZINC001272744746    0.0800
     16 C16       -10.1697   -0.1367   55.2097 C.ar    1  ZINC001272744746   -0.0200
     17 C17       -10.4192   -0.8472   54.0506 C.ar    1  ZINC001272744746   -0.1700
     18 C18        -9.5176   -0.8026   53.0008 C.ar    1  ZINC001272744746    0.1200
     19 F19        -9.7634   -1.4979   51.8687 F       1  ZINC001272744746   -0.1200
     20 C20        -8.3621   -0.0433   53.1116 C.ar    1  ZINC001272744746    0.0400
     21 O21        -7.4749    0.0027   52.0813 O.3     1  ZINC001272744746   -0.4700
     22 C22        -8.1129    0.6716   54.2786 C.ar    1  ZINC001272744746    0.1300
     23 O23        -6.9817    1.4178   54.3919 O.3     1  ZINC001272744746   -0.3000
     24 C24        -6.7909    2.1244   55.6192 C.3     1  ZINC001272744746    0.0200
     25 C25        -9.0221    0.6260   55.3235 C.ar    1  ZINC001272744746   -0.1800
     26 H26       -14.7750   -3.2483   60.9404 H       1  ZINC001272744746    0.1000
     27 H27       -15.5362   -1.5649   61.2335 H       1  ZINC001272744746    0.1000
     28 H28       -15.6605   -1.2102   58.8732 H       1  ZINC001272744746    0.1100
     29 H29       -14.7517   -4.1584   58.8160 H       1  ZINC001272744746    0.0900
     30 H30       -15.4110   -3.2383   57.4423 H       1  ZINC001272744746    0.0800
     31 H31       -12.9885   -0.7922   57.8224 H       1  ZINC001272744746    0.0700
     32 H32       -12.7439   -1.5694   59.4152 H       1  ZINC001272744746    0.0900
     33 H33       -11.2788   -2.4425   55.8476 H       1  ZINC001272744746    0.1100
     34 H34       -10.5313   -3.7269   56.8489 H       1  ZINC001272744746    0.1100
     35 H35       -11.0043   -3.5051   59.4701 H       1  ZINC001272744746    0.0700
     36 H36        -9.4485   -2.9260   58.8268 H       1  ZINC001272744746    0.0800
     37 H37       -11.3440   -1.3711   60.6484 H       1  ZINC001272744746    0.0600
     38 H38        -9.7688   -2.0643   61.1087 H       1  ZINC001272744746    0.0700
     39 H39        -9.5921    0.3718   60.6028 H       1  ZINC001272744746    0.0700
     40 H40        -8.6326   -0.6085   59.4681 H       1  ZINC001272744746    0.0700
     41 H41       -11.4359    0.4834   58.9504 H       1  ZINC001272744746    0.0400
     42 H42        -9.9263    1.1290   58.2632 H       1  ZINC001272744746    0.0900
     43 H43       -12.0029   -0.8120   56.0687 H       1  ZINC001272744746    0.1000
     44 H44       -11.5023    0.8194   56.5751 H       1  ZINC001272744746    0.0600
     45 H45       -11.3187   -1.4386   53.9639 H       1  ZINC001272744746    0.1400
     46 H46        -6.7209    0.5876   52.2373 H       1  ZINC001272744746    0.3900
     47 H47        -6.7575    1.4146   56.4458 H       1  ZINC001272744746    0.0600
     48 H48        -5.8529    2.6781   55.5777 H       1  ZINC001272744746    0.1100
     49 H49        -7.6166    2.8196   55.7704 H       1  ZINC001272744746    0.0600
     50 H50        -8.8303    1.1803   56.2304 H       1  ZINC001272744746    0.1400
@<TRIPOS>BOND
     1     1     2    2
     2     1    26    1
     3     1    27    1
     4     2     3    1
     5     2    28    1
     6     3     4    1
     7     3    29    1
     8     3    30    1
     9     4     8   am
    10     4     5    1
    11     5     6    1
    12     5    31    1
    13     5    32    1
    14     6    14    1
    15     6     7    1
    16     6    10    1
    17     7     8    1
    18     7    33    1
    19     7    34    1
    20     8     9    2
    21    10    11    1
    22    10    35    1
    23    10    36    1
    24    11    12    1
    25    11    37    1
    26    11    38    1
    27    12    13    1
    28    12    39    1
    29    12    40    1
    30    13    14    1
    31    13    41    1
    32    13    42    1
    33    14    15    1
    34    15    16    1
    35    15    43    1
    36    15    44    1
    37    16    25   ar
    38    16    17   ar
    39    17    18   ar
    40    17    45    1
    41    18    19    1
    42    18    20   ar
    43    20    21    1
    44    20    22   ar
    45    21    46    1
    46    22    23    1
    47    22    25   ar
    48    23    24    1
    49    24    47    1
    50    24    48    1
    51    24    49    1
    52    25    50    1
@<TRIPOS>SUBSTRUCTURE
     1 ZINC001272744746        1 TEMP              0 ****  ****    0 ROOT


##########                                Name:    ZINC001004075025
##########                DOCK_Rotatable_Bonds:                   8
##########                         Heavy_Atoms:                  25
##########                    Molecular_Weight:              349.43
##########                DOCK_Rotatable_Bonds:                   8
##########                       Formal_Charge:         -0.00999999
##########                     HBond_Acceptors:                   7
##########                        HBond_Donors:                   1
##########                         Heavy_Atoms:                  25
##########                          Grid_Score:          -30.864325
##########                     Grid_vdw_energy:          -30.826891
##########                      Grid_es_energy:           -0.037433
##########           Internal_energy_repulsive:           18.550083

@<TRIPOS>MOLECULE
ZINC001004075025
 52 54 1 0 0
SMALL
USER_CHARGES


@<TRIPOS>ATOM
      1 C1         -7.2609    0.7060   51.8709 C.3     1  ZINC001004075025   -0.1500
      2 C2         -6.9287    2.1034   52.3983 C.3     1  ZINC001004075025   -0.1200
      3 C3         -7.5525    2.2873   53.7832 C.3     1  ZINC001004075025    0.0800
      4 H4         -7.2481    3.2425   54.2109 H       1  ZINC001004075025    0.0700
      5 C5         -9.0973    2.2068   53.6921 C.3     1  ZINC001004075025   -0.1500
      6 C6         -9.4554    1.7678   55.1382 C.3     1  ZINC001004075025   -0.1400
      7 C7         -8.2625    0.8610   55.5102 C.3     1  ZINC001004075025    0.0700
      8 H8         -8.5329   -0.1846   55.3628 H       1  ZINC001004075025    0.1100
      9 C9         -7.8746    1.0909   56.9482 C.2     1  ZINC001004075025    0.5300
     10 O10        -7.0767    1.9598   57.2296 O.2     1  ZINC001004075025   -0.5200
     11 N11        -8.4142    0.3306   57.9215 N.am    1  ZINC001004075025   -0.6500
     12 C12        -9.3715   -0.7840   57.9865 C.3     1  ZINC001004075025    0.1100
     13 C13        -9.7277   -0.3239   59.4070 C.3     1  ZINC001004075025   -0.1400
     14 C14        -9.9287   -1.4664   60.4045 C.3     1  ZINC001004075025    0.1300
     15 N15       -11.1431   -2.2091   60.0579 N.am    1  ZINC001004075025   -0.7200
     16 C16       -12.3538   -1.6501   60.2532 C.2     1  ZINC001004075025    0.6000
     17 O17       -12.4381   -0.5285   60.7157 O.2     1  ZINC001004075025   -0.5300
     18 C18       -13.5756   -2.3980   59.9062 C.2     1  ZINC001004075025   -0.2700
     19 C19       -13.8448   -3.1172   58.7673 C.2     1  ZINC001004075025    0.0700
     20 C20       -12.9320   -3.3102   57.5839 C.3     1  ZINC001004075025   -0.0300
     21 C21       -13.4255   -4.4920   56.7466 C.3     1  ZINC001004075025   -0.1500
     22 C22       -12.9328   -2.0426   56.7270 C.3     1  ZINC001004075025   -0.1500
     23 O23       -15.0760   -3.6110   58.9173 O.3     1  ZINC001004075025    0.1000
     24 N24       -15.5869   -3.3017   59.9656 N.2     1  ZINC001004075025   -0.3500
     25 C25       -14.8050   -2.5639   60.6967 C.2     1  ZINC001004075025    0.0200
     26 C26        -8.2999    0.2463   59.3853 C.3     1  ZINC001004075025    0.1100
     27 O27        -7.1691    1.2080   54.6502 O.3     1  ZINC001004075025   -0.3400
     28 H28        -6.8165    0.5750   50.8843 H       1  ZINC001004075025    0.0600
     29 H29        -6.8602   -0.0442   52.5525 H       1  ZINC001004075025    0.0500
     30 H30        -8.3426    0.5920   51.8003 H       1  ZINC001004075025    0.0600
     31 H31        -5.8470    2.2175   52.4690 H       1  ZINC001004075025    0.0800
     32 H32        -7.3295    2.8537   51.7168 H       1  ZINC001004075025    0.0700
     33 H33        -9.5283    3.1804   53.4591 H       1  ZINC001004075025    0.0900
     34 H34        -9.4094    1.4569   52.9654 H       1  ZINC001004075025    0.0900
     35 H35        -9.5095    2.6299   55.8031 H       1  ZINC001004075025    0.0800
     36 H36       -10.3892    1.2059   55.1531 H       1  ZINC001004075025    0.0900
     37 H37       -10.1961   -0.6897   57.2801 H       1  ZINC001004075025    0.0900
     38 H38        -8.8980   -1.7653   57.9540 H       1  ZINC001004075025    0.0900
     39 H39       -10.5156    0.4281   59.4487 H       1  ZINC001004075025    0.1100
     40 H40        -9.0699   -2.1366   60.3672 H       1  ZINC001004075025    0.0800
     41 H41       -10.0274   -1.0578   61.4101 H       1  ZINC001004075025    0.0800
     42 H42       -11.0757   -3.1033   59.6879 H       1  ZINC001004075025    0.4000
     43 H43       -11.9198   -3.5110   57.9347 H       1  ZINC001004075025    0.1300
     44 H44       -14.4377   -4.2912   56.3958 H       1  ZINC001004075025    0.0600
     45 H45       -12.7652   -4.6316   55.8907 H       1  ZINC001004075025    0.0700
     46 H46       -13.4249   -5.3950   57.3571 H       1  ZINC001004075025    0.0600
     47 H47       -13.9451   -1.8418   56.3762 H       1  ZINC001004075025    0.0600
     48 H48       -12.5813   -1.2007   57.3235 H       1  ZINC001004075025    0.0600
     49 H49       -12.2726   -2.1822   55.8711 H       1  ZINC001004075025    0.0700
     50 H50       -15.0158   -2.1543   61.6736 H       1  ZINC001004075025    0.2000
     51 H51        -7.5444   -0.4622   59.7250 H       1  ZINC001004075025    0.0900
     52 H52        -8.2138    1.2194   59.8687 H       1  ZINC001004075025    0.0800
@<TRIPOS>BOND
     1     1     2    1
     2     1    28    1
     3     1    29    1
     4     1    30    1
     5     2     3    1
     6     2    31    1
     7     2    32    1
     8     3     4    1
     9     3    27    1
    10     3     5    1
    11     5     6    1
    12     5    33    1
    13     5    34    1
    14     6     7    1
    15     6    35    1
    16     6    36    1
    17     7     8    1
    18     7     9    1
    19     7    27    1
    20     9    10    2
    21     9    11   am
    22    11    26    1
    23    11    12    1
    24    12    13    1
    25    12    37    1
    26    12    38    1
    27    13    14    1
    28    13    26    1
    29    13    39    1
    30    14    15    1
    31    14    40    1
    32    14    41    1
    33    15    16   am
    34    15    42    1
    35    16    17    2
    36    16    18    1
    37    18    25    1
    38    18    19    2
    39    19    20    1
    40    19    23    1
    41    20    21    1
    42    20    22    1
    43    20    43    1
    44    21    44    1
    45    21    45    1
    46    21    46    1
    47    22    47    1
    48    22    48    1
    49    22    49    1
    50    23    24    1
    51    24    25    2
    52    25    50    1
    53    26    51    1
    54    26    52    1
@<TRIPOS>SUBSTRUCTURE
     1 ZINC001004075025        1 TEMP              0 ****  ****    0 ROOT


##########                                Name:    ZINC000482540246
##########                DOCK_Rotatable_Bonds:                  10
##########                         Heavy_Atoms:                  30
##########                    Molecular_Weight:              409.46
##########                DOCK_Rotatable_Bonds:                  10
##########                       Formal_Charge:         2.83122e-07
##########                     HBond_Acceptors:                   7
##########                        HBond_Donors:                   2
##########                         Heavy_Atoms:                  30
##########                          Grid_Score:          -30.860764
##########                     Grid_vdw_energy:          -30.278494
##########                      Grid_es_energy:           -0.582269
##########           Internal_energy_repulsive:           12.351421

@<TRIPOS>MOLECULE
ZINC000482540246
 54 56 1 0 0
SMALL
USER_CHARGES


@<TRIPOS>ATOM
      1 C1         -8.5275    0.2588   63.6743 C.3     1  ZINC000482540246    0.0400
      2 O2         -8.4900   -0.4290   62.4222 O.3     1  ZINC000482540246   -0.3100
      3 C3         -9.5975   -0.3497   61.6425 C.ar    1  ZINC000482540246    0.3300
      4 C4         -9.6317   -1.0190   60.4262 C.ar    1  ZINC000482540246   -0.1800
      5 C5        -10.7676   -0.9300   59.6402 C.ar    1  ZINC000482540246   -0.0100
      6 C6        -10.8448   -1.6418   58.3140 C.3     1  ZINC000482540246    0.2000
      7 H7        -11.8886   -1.7482   58.0190 H       1  ZINC000482540246    0.1000
      8 C8        -10.2068   -3.0267   58.4406 C.3     1  ZINC000482540246   -0.1600
      9 N9        -10.1275   -0.8646   57.3003 N.am    1  ZINC000482540246   -0.7400
     10 C10       -10.4398   -1.0063   55.9969 C.2     1  ZINC000482540246    0.7100
     11 O11       -11.3158   -1.7803   55.6623 O.2     1  ZINC000482540246   -0.5800
     12 N12        -9.7811   -0.2900   55.0644 N.am    1  ZINC000482540246   -0.7400
     13 C13       -10.1218   -0.4428   53.6477 C.3     1  ZINC000482540246    0.2100
     14 H14       -10.4005   -1.4779   53.4506 H       1  ZINC000482540246    0.1200
     15 C15        -8.9123   -0.0678   52.7890 C.3     1  ZINC000482540246    0.0500
     16 O16        -7.8274    0.3164   53.6360 O.3     1  ZINC000482540246   -0.3000
     17 C17        -6.9353    1.2088   53.1299 C.ar    1  ZINC000482540246    0.1000
     18 C18        -5.9380    0.7808   52.2676 C.ar    1  ZINC000482540246   -0.1800
     19 C19        -5.0325    1.6899   51.7538 C.ar    1  ZINC000482540246   -0.0900
     20 C20        -5.1198    3.0255   52.0984 C.ar    1  ZINC000482540246   -0.1300
     21 C21        -6.1131    3.4569   52.9588 C.ar    1  ZINC000482540246   -0.1200
     22 C22        -7.0253    2.5527   53.4714 C.ar    1  ZINC000482540246    0.0700
     23 F23        -7.9957    2.9736   54.3118 F       1  ZINC000482540246   -0.1300
     24 C24       -11.2783    0.4621   53.3088 C.ar    1  ZINC000482540246   -0.1000
     25 C25       -12.2370    0.0485   52.4029 C.ar    1  ZINC000482540246   -0.0800
     26 C26       -13.2978    0.8786   52.0920 C.ar    1  ZINC000482540246   -0.1200
     27 C27       -13.4002    2.1220   52.6874 C.ar    1  ZINC000482540246   -0.1200
     28 C28       -12.4419    2.5351   53.5939 C.ar    1  ZINC000482540246   -0.1200
     29 C29       -11.3834    1.7033   53.9081 C.ar    1  ZINC000482540246   -0.1000
     30 C30       -11.8338   -0.1708   60.1013 C.ar    1  ZINC000482540246   -0.2100
     31 C31       -11.7305    0.4682   61.3211 C.ar    1  ZINC000482540246    0.1500
     32 N32       -10.6365    0.3602   62.0506 N.ar    1  ZINC000482540246   -0.5400
     33 H33        -7.5818    0.1143   64.1966 H       1  ZINC000482540246    0.1000
     34 H34        -8.6872    1.3228   63.4997 H       1  ZINC000482540246    0.0600
     35 H35        -9.3420   -0.1361   64.2815 H       1  ZINC000482540246    0.0600
     36 H36        -8.7832   -1.6011   60.0979 H       1  ZINC000482540246    0.1500
     37 H37        -9.1629   -2.9203   58.7357 H       1  ZINC000482540246    0.0600
     38 H38       -10.7405   -3.6049   59.1949 H       1  ZINC000482540246    0.0700
     39 H39       -10.2626   -3.5415   57.4815 H       1  ZINC000482540246    0.0700
     40 H40        -9.4279   -0.2480   57.5671 H       1  ZINC000482540246    0.4000
     41 H41        -9.0815    0.3265   55.3312 H       1  ZINC000482540246    0.4000
     42 H42        -8.6157   -0.9254   52.1851 H       1  ZINC000482540246    0.0800
     43 H43        -9.1748    0.7638   52.1351 H       1  ZINC000482540246    0.0800
     44 H44        -5.8683   -0.2627   51.9977 H       1  ZINC000482540246    0.1400
     45 H45        -4.2552    1.3560   51.0822 H       1  ZINC000482540246    0.1300
     46 H46        -4.4109    3.7336   51.6954 H       1  ZINC000482540246    0.1400
     47 H47        -6.1789    4.5010   53.2269 H       1  ZINC000482540246    0.1400
     48 H48       -12.1571   -0.9229   51.9378 H       1  ZINC000482540246    0.1200
     49 H49       -14.0465    0.5558   51.3836 H       1  ZINC000482540246    0.1200
     50 H50       -14.2286    2.7707   52.4439 H       1  ZINC000482540246    0.1200
     51 H51       -12.5216    3.5066   54.0588 H       1  ZINC000482540246    0.1200
     52 H52       -10.6347    2.0261   54.6164 H       1  ZINC000482540246    0.1200
     53 H53       -12.7346   -0.0805   59.5124 H       1  ZINC000482540246    0.1400
     54 H54       -12.5574    1.0602   61.6846 H       1  ZINC000482540246    0.1600
@<TRIPOS>BOND
     1     1     2    1
     2     1    33    1
     3     1    34    1
     4     1    35    1
     5     2     3    1
     6     3    32   ar
     7     3     4   ar
     8     4     5   ar
     9     4    36    1
    10     5     6    1
    11     5    30   ar
    12     6     7    1
    13     6     8    1
    14     6     9    1
    15     8    37    1
    16     8    38    1
    17     8    39    1
    18     9    10   am
    19     9    40    1
    20    10    11    2
    21    10    12   am
    22    12    13    1
    23    12    41    1
    24    13    14    1
    25    13    15    1
    26    13    24    1
    27    15    16    1
    28    15    42    1
    29    15    43    1
    30    16    17    1
    31    17    22   ar
    32    17    18   ar
    33    18    19   ar
    34    18    44    1
    35    19    20   ar
    36    19    45    1
    37    20    21   ar
    38    20    46    1
    39    21    22   ar
    40    21    47    1
    41    22    23    1
    42    24    29   ar
    43    24    25   ar
    44    25    26   ar
    45    25    48    1
    46    26    27   ar
    47    26    49    1
    48    27    28   ar
    49    27    50    1
    50    28    29   ar
    51    28    51    1
    52    29    52    1
    53    30    31   ar
    54    30    53    1
    55    31    32   ar
    56    31    54    1
@<TRIPOS>SUBSTRUCTURE
     1 ZINC000482540246        1 TEMP              0 ****  ****    0 ROOT


##########                                Name:    ZINC000442010511
##########                DOCK_Rotatable_Bonds:                  11
##########                         Heavy_Atoms:                  31
##########                    Molecular_Weight:             422.481
##########                DOCK_Rotatable_Bonds:                  11
##########                       Formal_Charge:          -0.0200005
##########                     HBond_Acceptors:                   7
##########                        HBond_Donors:                   2
##########                         Heavy_Atoms:                  31
##########                          Grid_Score:          -30.837135
##########                     Grid_vdw_energy:          -31.592075
##########                      Grid_es_energy:            0.754939
##########           Internal_energy_repulsive:           11.633256

@<TRIPOS>MOLECULE
ZINC000442010511
 57 59 1 0 0
SMALL
USER_CHARGES


@<TRIPOS>ATOM
      1 C1          0.0601    1.7635   61.1562 C.3     1  ZINC000442010511   -0.1500
      2 C2         -0.0356    1.9499   59.6406 C.3     1  ZINC000442010511   -0.0500
      3 C3         -1.2888    2.7176   59.3070 C.2     1  ZINC000442010511    0.0000
      4 C4         -1.8816    3.6350   60.0919 C.2     1  ZINC000442010511   -0.2100
      5 C5         -3.0194    4.0987   59.3923 C.2     1  ZINC000442010511   -0.1900
      6 C6         -3.0537    3.4369   58.2219 C.2     1  ZINC000442010511   -0.0300
      7 C7         -4.0942    3.6048   57.1447 C.3     1  ZINC000442010511    0.2400
      8 H8         -4.4760    4.6255   57.1642 H       1  ZINC000442010511    0.1400
      9 C9         -3.4650    3.3215   55.7792 C.3     1  ZINC000442010511    0.0500
     10 O10        -2.3918    4.2369   55.5502 O.3     1  ZINC000442010511   -0.3800
     11 C11        -1.7336    4.0584   54.2943 C.3     1  ZINC000442010511    0.0300
     12 N12        -5.1953    2.6671   57.3789 N.am    1  ZINC000442010511   -0.6900
     13 C13        -6.1685    2.9766   58.2584 C.2     1  ZINC000442010511    0.5200
     14 O14        -6.1319    4.0314   58.8575 O.2     1  ZINC000442010511   -0.5100
     15 C15        -7.2918    2.0216   58.4958 C.2     1  ZINC000442010511    0.5100
     16 O16        -7.9658    2.1154   59.5010 O.2     1  ZINC000442010511   -0.5000
     17 N17        -7.5572    1.0558   57.5941 N.am    1  ZINC000442010511   -0.6300
     18 C18        -8.6092    0.1615   57.8164 C.ar    1  ZINC000442010511    0.1200
     19 C19        -8.4451   -0.9017   58.6927 C.ar    1  ZINC000442010511   -0.1000
     20 C20        -9.4862   -1.7841   58.9106 C.ar    1  ZINC000442010511   -0.1300
     21 C21       -10.6925   -1.6108   58.2574 C.ar    1  ZINC000442010511   -0.0900
     22 C22       -10.8640   -0.5542   57.3822 C.ar    1  ZINC000442010511   -0.1700
     23 C23        -9.8278    0.3389   57.1625 C.ar    1  ZINC000442010511    0.1000
     24 O24        -9.9947    1.3782   56.3024 O.3     1  ZINC000442010511   -0.2600
     25 C25        -9.2185    1.4150   55.1878 C.ar    1  ZINC000442010511    0.0800
     26 C26        -9.0724    0.2788   54.4048 C.ar    1  ZINC000442010511   -0.1300
     27 C27        -8.2830    0.3189   53.2719 C.ar    1  ZINC000442010511   -0.1100
     28 C28        -7.6382    1.4899   52.9184 C.ar    1  ZINC000442010511   -0.0800
     29 C29        -6.7771    1.5306   51.6822 C.3     1  ZINC000442010511   -0.1200
     30 C30        -7.7823    2.6236   53.6966 C.ar    1  ZINC000442010511   -0.1100
     31 C31        -8.5748    2.5903   54.8276 C.ar    1  ZINC000442010511   -0.1100
     32 O32        -1.9998    2.6058   58.1732 O.3     1  ZINC000442010511   -0.1600
     33 H33         0.0919    2.7392   61.6409 H       1  ZINC000442010511    0.0600
     34 H34        -0.8098    1.2103   61.5098 H       1  ZINC000442010511    0.0600
     35 H35         0.9665    1.2083   61.3974 H       1  ZINC000442010511    0.0700
     36 H36         0.8344    2.5031   59.2869 H       1  ZINC000442010511    0.0900
     37 H37        -0.0673    0.9741   59.1558 H       1  ZINC000442010511    0.0800
     38 H38        -1.5522    3.9555   61.0692 H       1  ZINC000442010511    0.1500
     39 H39        -3.7257    4.8415   59.7327 H       1  ZINC000442010511    0.1500
     40 H40        -3.0826    2.3010   55.7599 H       1  ZINC000442010511    0.0700
     41 H41        -4.2179    3.4422   55.0002 H       1  ZINC000442010511    0.0700
     42 H42        -0.9321    4.7907   54.1968 H       1  ZINC000442010511    0.0900
     43 H43        -1.3156    3.0532   54.2428 H       1  ZINC000442010511    0.0400
     44 H44        -2.4513    4.1954   53.4854 H       1  ZINC000442010511    0.0400
     45 H45        -5.2238    1.8235   56.9009 H       1  ZINC000442010511    0.4200
     46 H46        -7.0185    0.9810   56.7909 H       1  ZINC000442010511    0.4300
     47 H47        -7.5039   -1.0399   59.2042 H       1  ZINC000442010511    0.1600
     48 H48        -9.3572   -2.6115   59.5927 H       1  ZINC000442010511    0.1300
     49 H49       -11.5030   -2.3030   58.4310 H       1  ZINC000442010511    0.1300
     50 H50       -11.8073   -0.4223   56.8733 H       1  ZINC000442010511    0.1300
     51 H51        -9.5753   -0.6363   54.6809 H       1  ZINC000442010511    0.1300
     52 H52        -8.1690   -0.5651   52.6620 H       1  ZINC000442010511    0.1300
     53 H53        -7.3851    1.8208   50.8253 H       1  ZINC000442010511    0.0700
     54 H54        -5.9757    2.2561   51.8214 H       1  ZINC000442010511    0.0700
     55 H55        -6.3478    0.5443   51.5058 H       1  ZINC000442010511    0.0700
     56 H56        -7.2775    3.5369   53.4182 H       1  ZINC000442010511    0.1300
     57 H57        -8.6873    3.4762   55.4350 H       1  ZINC000442010511    0.1300
@<TRIPOS>BOND
     1     1     2    1
     2     1    33    1
     3     1    34    1
     4     1    35    1
     5     2     3    1
     6     2    36    1
     7     2    37    1
     8     3    32    1
     9     3     4    2
    10     4     5    1
    11     4    38    1
    12     5     6    2
    13     5    39    1
    14     6     7    1
    15     6    32    1
    16     7     8    1
    17     7     9    1
    18     7    12    1
    19     9    10    1
    20     9    40    1
    21     9    41    1
    22    10    11    1
    23    11    42    1
    24    11    43    1
    25    11    44    1
    26    12    13   am
    27    12    45    1
    28    13    14    2
    29    13    15    1
    30    15    16    2
    31    15    17   am
    32    17    18    1
    33    17    46    1
    34    18    23   ar
    35    18    19   ar
    36    19    20   ar
    37    19    47    1
    38    20    21   ar
    39    20    48    1
    40    21    22   ar
    41    21    49    1
    42    22    23   ar
    43    22    50    1
    44    23    24    1
    45    24    25    1
    46    25    31   ar
    47    25    26   ar
    48    26    27   ar
    49    26    51    1
    50    27    28   ar
    51    27    52    1
    52    28    29    1
    53    28    30   ar
    54    29    53    1
    55    29    54    1
    56    29    55    1
    57    30    31   ar
    58    30    56    1
    59    31    57    1
@<TRIPOS>SUBSTRUCTURE
     1 ZINC000442010511        1 TEMP              0 ****  ****    0 ROOT


##########                                Name:    ZINC000745364361
##########                DOCK_Rotatable_Bonds:                   8
##########                         Heavy_Atoms:                  29
##########                    Molecular_Weight:             398.434
##########                DOCK_Rotatable_Bonds:                   8
##########                       Formal_Charge:          0.00999923
##########                     HBond_Acceptors:                   7
##########                        HBond_Donors:                   1
##########                         Heavy_Atoms:                  29
##########                          Grid_Score:          -30.787193
##########                     Grid_vdw_energy:          -29.923601
##########                      Grid_es_energy:           -0.863592
##########           Internal_energy_repulsive:           17.856775

@<TRIPOS>MOLECULE
ZINC000745364361
 52 54 1 0 0
SMALL
USER_CHARGES


@<TRIPOS>ATOM
      1 C1        -12.7559   -3.6550   56.6668 C.3     1  ZINC000745364361   -0.1700
      2 C2        -11.3259   -3.4218   57.1585 C.3     1  ZINC000745364361    0.0700
      3 H3        -10.8258   -4.3813   57.2895 H       1  ZINC000745364361    0.1100
      4 O4        -11.3593   -2.7162   58.4271 O.3     1  ZINC000745364361   -0.3200
      5 C5        -10.1892   -2.5526   59.0643 C.2     1  ZINC000745364361    0.4700
      6 O6         -9.2111   -3.1589   58.6963 O.2     1  ZINC000745364361   -0.4900
      7 C7        -10.0957   -1.6127   60.2386 C.3     1  ZINC000745364361   -0.0400
      8 H8        -10.3869   -2.1376   61.1483 H       1  ZINC000745364361    0.1200
      9 C9         -8.6568   -1.1114   60.3772 C.3     1  ZINC000745364361   -0.1400
     10 C10       -11.0169   -0.4405   60.0182 C.ar    1  ZINC000745364361   -0.0500
     11 C11       -10.5692    0.6698   59.3273 C.ar    1  ZINC000745364361   -0.1000
     12 C12       -11.4132    1.7459   59.1245 C.ar    1  ZINC000745364361   -0.0900
     13 C13       -12.7056    1.7127   59.6122 C.ar    1  ZINC000745364361   -0.1500
     14 C14       -13.1554    0.6006   60.3042 C.ar    1  ZINC000745364361    0.1000
     15 F15       -14.4188    0.5670   60.7817 F       1  ZINC000745364361   -0.1400
     16 C16       -12.3111   -0.4784   60.5022 C.ar    1  ZINC000745364361   -0.1400
     17 C17       -10.5744   -2.5977   56.1450 C.2     1  ZINC000745364361    0.5200
     18 O18       -10.0761   -3.1332   55.1774 O.2     1  ZINC000745364361   -0.5000
     19 N19       -10.4560   -1.2659   56.3137 N.am    1  ZINC000745364361   -0.6700
     20 C20        -9.7575   -0.4999   55.3716 C.ar    1  ZINC000745364361    0.1200
     21 C21       -10.2733   -0.3321   54.0932 C.ar    1  ZINC000745364361   -0.1100
     22 C22        -9.5849    0.4227   53.1648 C.ar    1  ZINC000745364361   -0.1400
     23 C23        -8.3767    1.0145   53.5092 C.ar    1  ZINC000745364361    0.1500
     24 N24        -7.6780    1.7800   52.5670 N.am    1  ZINC000745364361   -0.5600
     25 C25        -6.3090    1.4962   52.1206 C.3     1  ZINC000745364361    0.0900
     26 C26        -6.1283    2.2959   50.8114 C.3     1  ZINC000745364361   -0.1300
     27 C27        -7.1539    3.4383   50.9956 C.3     1  ZINC000745364361   -0.1500
     28 C28        -8.1773    2.8655   51.9512 C.2     1  ZINC000745364361    0.5200
     29 O29        -9.2845    3.3234   52.1397 O.2     1  ZINC000745364361   -0.5100
     30 C30        -7.8616    0.8478   54.7880 C.ar    1  ZINC000745364361   -0.1400
     31 C31        -8.5520    0.0961   55.7176 C.ar    1  ZINC000745364361   -0.0900
     32 H32       -13.2995   -4.2510   57.3999 H       1  ZINC000745364361    0.0800
     33 H33       -13.2561   -2.6954   56.5359 H       1  ZINC000745364361    0.0800
     34 H34       -12.7308   -4.1847   55.7146 H       1  ZINC000745364361    0.0800
     35 H35        -8.3657   -0.5864   59.4675 H       1  ZINC000745364361    0.0700
     36 H36        -8.5891   -0.4316   61.2265 H       1  ZINC000745364361    0.0800
     37 H37        -7.9905   -1.9592   60.5366 H       1  ZINC000745364361    0.0800
     38 H38        -9.5591    0.6968   58.9460 H       1  ZINC000745364361    0.1300
     39 H39       -11.0621    2.6131   58.5847 H       1  ZINC000745364361    0.1400
     40 H40       -13.3644    2.5536   59.4543 H       1  ZINC000745364361    0.1400
     41 H41       -12.6609   -1.3463   61.0414 H       1  ZINC000745364361    0.1400
     42 H42       -10.8544   -0.8377   57.0874 H       1  ZINC000745364361    0.4100
     43 H43       -11.2129   -0.7923   53.8252 H       1  ZINC000745364361    0.1300
     44 H44        -9.9857    0.5527   52.1703 H       1  ZINC000745364361    0.1600
     45 H45        -5.5910    1.8311   52.8693 H       1  ZINC000745364361    0.0800
     46 H46        -6.1875    0.4297   51.9310 H       1  ZINC000745364361    0.0900
     47 H47        -5.1152    2.6902   50.7318 H       1  ZINC000745364361    0.1000
     48 H48        -6.3768    1.6848   49.9436 H       1  ZINC000745364361    0.0900
     49 H49        -6.6733    4.3166   51.4267 H       1  ZINC000745364361    0.1100
     50 H50        -7.6225    3.6875   50.0436 H       1  ZINC000745364361    0.1100
     51 H51        -6.9222    1.3082   55.0561 H       1  ZINC000745364361    0.1300
     52 H52        -8.1512   -0.0336   56.7121 H       1  ZINC000745364361    0.1400
@<TRIPOS>BOND
     1     1     2    1
     2     1    32    1
     3     1    33    1
     4     1    34    1
     5     2     3    1
     6     2     4    1
     7     2    17    1
     8     4     5    1
     9     5     6    2
    10     5     7    1
    11     7     8    1
    12     7     9    1
    13     7    10    1
    14     9    35    1
    15     9    36    1
    16     9    37    1
    17    10    16   ar
    18    10    11   ar
    19    11    12   ar
    20    11    38    1
    21    12    13   ar
    22    12    39    1
    23    13    14   ar
    24    13    40    1
    25    14    15    1
    26    14    16   ar
    27    16    41    1
    28    17    18    2
    29    17    19   am
    30    19    20    1
    31    19    42    1
    32    20    31   ar
    33    20    21   ar
    34    21    22   ar
    35    21    43    1
    36    22    23   ar
    37    22    44    1
    38    23    24    1
    39    23    30   ar
    40    24    28   am
    41    24    25    1
    42    25    26    1
    43    25    45    1
    44    25    46    1
    45    26    27    1
    46    26    47    1
    47    26    48    1
    48    27    28    1
    49    27    49    1
    50    27    50    1
    51    28    29    2
    52    30    31   ar
    53    30    51    1
    54    31    52    1
@<TRIPOS>SUBSTRUCTURE
     1 ZINC000745364361        1 TEMP              0 ****  ****    0 ROOT


##########                                Name:    ZINC001181473921
##########                DOCK_Rotatable_Bonds:                   9
##########                         Heavy_Atoms:                  24
##########                    Molecular_Weight:             357.431
##########                DOCK_Rotatable_Bonds:                   9
##########                       Formal_Charge:        -5.96046e-08
##########                     HBond_Acceptors:                   9
##########                        HBond_Donors:                   4
##########                         Heavy_Atoms:                  24
##########                          Grid_Score:          -30.772022
##########                     Grid_vdw_energy:          -27.244497
##########                      Grid_es_energy:           -3.527524
##########           Internal_energy_repulsive:           11.428879

@<TRIPOS>MOLECULE
ZINC001181473921
 47 48 1 0 0
SMALL
USER_CHARGES


@<TRIPOS>ATOM
      1 C1         -8.4541   -0.8468   59.5599 C.3     1  ZINC001181473921   -0.1300
      2 C2         -9.2240   -0.2499   60.7098 C.2     1  ZINC001181473921    0.1900
      3 C3         -8.6604   -0.2028   61.9358 C.2     1  ZINC001181473921   -0.2400
      4 C4         -9.3753    0.3546   63.0146 C.2     1  ZINC001181473921    0.2500
      5 O5         -8.8234    0.4095   64.2504 O.3     1  ZINC001181473921   -0.4600
      6 C6        -10.6487    0.8450   62.7921 C.2     1  ZINC001181473921   -0.3700
      7 C7        -11.1906    0.7740   61.5034 C.2     1  ZINC001181473921    0.5300
      8 O8        -12.3139    1.2032   61.2904 O.2     1  ZINC001181473921   -0.5500
      9 N9        -10.4741    0.2388   60.4976 N.am    1  ZINC001181473921   -0.5000
     10 C10       -11.0555    0.1724   59.1545 C.3     1  ZINC001181473921    0.1000
     11 C11       -10.8034    1.4927   58.4238 C.3     1  ZINC001181473921   -0.1600
     12 C12       -10.8023    1.2513   56.9362 C.2     1  ZINC001181473921    0.5200
     13 O13       -11.7972    0.8228   56.3907 O.2     1  ZINC001181473921   -0.5300
     14 N14        -9.6958    1.5115   56.2120 N.am    1  ZINC001181473921   -0.7200
     15 C15        -9.6942    1.2752   54.7662 C.3     1  ZINC001181473921    0.1400
     16 H16       -10.5721    1.7247   54.3019 H       1  ZINC001181473921    0.1000
     17 C17        -9.6260   -0.2412   54.4580 C.3     1  ZINC001181473921   -0.1300
     18 C18        -9.0291   -0.3119   53.0373 C.3     1  ZINC001181473921   -0.1500
     19 C19        -8.2444    0.9945   52.8246 C.3     1  ZINC001181473921   -0.0800
     20 H20        -8.6627    1.5487   51.9842 H       1  ZINC001181473921    0.0900
     21 C21        -6.7691    0.6834   52.5645 C.3     1  ZINC001181473921   -0.6200
     22 S22        -5.9483    2.1580   51.8993 S.o2    1  ZINC001181473921    2.6100
     23 N23        -4.4297    1.6377   51.4930 N.am    1  ZINC001181473921   -1.2500
     24 O24        -6.5320    2.5375   50.6605 O.2     1  ZINC001181473921   -0.9600
     25 O25        -5.7280    3.1128   52.9283 O.2     1  ZINC001181473921   -0.9600
     26 C26        -8.3942    1.8182   54.1227 C.3     1  ZINC001181473921   -0.1200
     27 H27        -8.3948   -0.1225   58.7475 H       1  ZINC001181473921    0.0900
     28 H28        -7.4481   -1.1044   59.8912 H       1  ZINC001181473921    0.1000
     29 H29        -8.9624   -1.7450   59.2097 H       1  ZINC001181473921    0.0900
     30 H30        -7.6645   -0.5915   62.0893 H       1  ZINC001181473921    0.1500
     31 H31        -7.8694    0.2520   64.2624 H       1  ZINC001181473921    0.4100
     32 H32       -11.2179    1.2770   63.6019 H       1  ZINC001181473921    0.1500
     33 H33       -10.5944   -0.6442   58.5990 H       1  ZINC001181473921    0.1000
     34 H34       -12.1289   -0.0011   59.2315 H       1  ZINC001181473921    0.1100
     35 H35       -11.5903    2.2036   58.6758 H       1  ZINC001181473921    0.1100
     36 H36        -9.8376    1.8971   58.7269 H       1  ZINC001181473921    0.1000
     37 H37        -8.9005    1.8553   56.6481 H       1  ZINC001181473921    0.4000
     38 H38        -8.9746   -0.7465   55.1711 H       1  ZINC001181473921    0.0700
     39 H39       -10.6240   -0.6792   54.4747 H       1  ZINC001181473921    0.0800
     40 H40        -8.3587   -1.1675   52.9560 H       1  ZINC001181473921    0.0900
     41 H41        -9.8280   -0.3919   52.3001 H       1  ZINC001181473921    0.0800
     42 H42        -6.2894    0.3907   53.4985 H       1  ZINC001181473921    0.1400
     43 H43        -6.6911   -0.1316   51.8449 H       1  ZINC001181473921    0.1400
     44 H44        -3.7912    2.2582   51.1080 H       1  ZINC001181473921    0.4100
     45 H45        -4.1784    0.7123   51.6400 H       1  ZINC001181473921    0.4200
     46 H46        -8.4909    2.8791   53.8923 H       1  ZINC001181473921    0.0800
     47 H47        -7.5446    1.6463   54.7836 H       1  ZINC001181473921    0.0800
@<TRIPOS>BOND
     1     1     2    1
     2     1    27    1
     3     1    28    1
     4     1    29    1
     5     2     9    1
     6     2     3    2
     7     3     4    1
     8     3    30    1
     9     4     5    1
    10     4     6    2
    11     5    31    1
    12     6     7    1
    13     6    32    1
    14     7     8    2
    15     7     9   am
    16     9    10    1
    17    10    11    1
    18    10    33    1
    19    10    34    1
    20    11    12    1
    21    11    35    1
    22    11    36    1
    23    12    13    2
    24    12    14   am
    25    14    15    1
    26    14    37    1
    27    15    16    1
    28    15    26    1
    29    15    17    1
    30    17    18    1
    31    17    38    1
    32    17    39    1
    33    18    19    1
    34    18    40    1
    35    18    41    1
    36    19    20    1
    37    19    21    1
    38    19    26    1
    39    21    22    1
    40    21    42    1
    41    21    43    1
    42    22    23   am
    43    22    24    2
    44    22    25    2
    45    23    44    1
    46    23    45    1
    47    26    46    1
    48    26    47    1
@<TRIPOS>SUBSTRUCTURE
     1 ZINC001181473921        1 TEMP              0 ****  ****    0 ROOT


##########                                Name:    ZINC000188380122
##########                DOCK_Rotatable_Bonds:                   6
##########                         Heavy_Atoms:                  27
##########                    Molecular_Weight:             396.433
##########                DOCK_Rotatable_Bonds:                   6
##########                       Formal_Charge:           0.0299998
##########                     HBond_Acceptors:                   8
##########                        HBond_Donors:                   1
##########                         Heavy_Atoms:                  27
##########                          Grid_Score:          -30.758341
##########                     Grid_vdw_energy:          -29.732275
##########                      Grid_es_energy:           -1.026067
##########           Internal_energy_repulsive:           10.107146

@<TRIPOS>MOLECULE
ZINC000188380122
 46 49 1 0 0
SMALL
USER_CHARGES


@<TRIPOS>ATOM
      1 O1        -11.0473    0.2814   60.6293 O.2     1  ZINC000188380122   -0.5200
      2 C2        -10.5886   -0.2564   59.6437 C.2     1  ZINC000188380122    0.5200
      3 C3         -9.1102   -0.5356   59.5570 C.3     1  ZINC000188380122   -0.0700
      4 C4         -8.4880    0.3682   58.5240 C.2     1  ZINC000188380122    0.0900
      5 C5         -7.8510    1.4956   58.8580 C.2     1  ZINC000188380122   -0.2400
      6 S6         -7.2727    2.2605   57.3792 S.3     1  ZINC000188380122    0.1000
      7 C7         -7.9676    0.9464   56.4335 C.2     1  ZINC000188380122    0.1100
      8 C8         -7.9123    0.8265   54.9608 C.ar    1  ZINC000188380122   -0.0200
      9 C9         -8.7512   -0.0708   54.2990 C.ar    1  ZINC000188380122   -0.0400
     10 C10        -8.6950   -0.1776   52.9244 C.ar    1  ZINC000188380122   -0.1200
     11 C11        -7.8091    0.6022   52.2027 C.ar    1  ZINC000188380122   -0.0600
     12 C12        -6.9745    1.4939   52.8531 C.ar    1  ZINC000188380122   -0.1800
     13 C13        -6.0129    2.3398   52.0588 C.3     1  ZINC000188380122    0.5100
     14 F14        -4.7411    1.7579   52.0940 F       1  ZINC000188380122   -0.1700
     15 F15        -6.4509    2.4235   50.7328 F       1  ZINC000188380122   -0.1700
     16 F16        -5.9540    3.6233   52.6124 F       1  ZINC000188380122   -0.1700
     17 C17        -7.0248    1.6144   54.2264 C.ar    1  ZINC000188380122   -0.0500
     18 N18        -8.5330    0.0949   57.2405 N.2     1  ZINC000188380122   -0.4300
     19 N19       -11.4017   -0.6095   58.6285 N.am    1  ZINC000188380122   -0.7200
     20 C20       -12.8388   -0.3380   58.7129 C.3     1  ZINC000188380122    0.1300
     21 H21       -13.0740    0.7243   58.6478 H       1  ZINC000188380122    0.1200
     22 C22       -13.5345   -1.0536   59.8845 C.3     1  ZINC000188380122   -0.1800
     23 C23       -14.7037   -1.2921   58.9218 C.3     1  ZINC000188380122    0.0900
     24 H24       -15.3921   -0.4470   58.9060 H       1  ZINC000188380122    0.1200
     25 O25       -15.3868   -2.5087   59.0906 O.3     1  ZINC000188380122   -0.3700
     26 C26       -14.7306   -3.7250   58.7840 C.3     1  ZINC000188380122    0.0700
     27 C27       -14.0434   -3.6451   57.4217 C.3     1  ZINC000188380122   -0.1600
     28 C28       -12.9925   -2.5316   57.4685 C.3     1  ZINC000188380122   -0.1100
     29 C29       -13.6907   -1.2186   57.7762 C.3     1  ZINC000188380122   -0.1500
     30 H30       -14.0553   -0.7045   56.8868 H       1  ZINC000188380122    0.0900
     31 H31        -8.6480   -0.3511   60.5268 H       1  ZINC000188380122    0.1100
     32 H32        -8.9530   -1.5758   59.2716 H       1  ZINC000188380122    0.1100
     33 H33        -7.7148    1.8724   59.8608 H       1  ZINC000188380122    0.1800
     34 H34        -9.4427   -0.6806   54.8614 H       1  ZINC000188380122    0.1500
     35 H35        -9.3438   -0.8716   52.4109 H       1  ZINC000188380122    0.1400
     36 H36        -7.7685    0.5143   51.1271 H       1  ZINC000188380122    0.1500
     37 H37        -6.3729    2.3108   54.7328 H       1  ZINC000188380122    0.1400
     38 H38       -11.0353   -1.0431   57.8420 H       1  ZINC000188380122    0.4000
     39 H39       -13.0326   -1.9685   60.1995 H       1  ZINC000188380122    0.0900
     40 H40       -13.7798   -0.3943   60.7172 H       1  ZINC000188380122    0.0800
     41 H41       -13.9838   -3.9324   59.5504 H       1  ZINC000188380122    0.0500
     42 H42       -15.4620   -4.5330   58.7696 H       1  ZINC000188380122    0.1000
     43 H43       -13.5592   -4.5962   57.1999 H       1  ZINC000188380122    0.0800
     44 H44       -14.7816   -3.4194   56.6521 H       1  ZINC000188380122    0.0800
     45 H45       -12.2635   -2.7499   58.2488 H       1  ZINC000188380122    0.0700
     46 H46       -12.4893   -2.4632   56.5042 H       1  ZINC000188380122    0.0800
@<TRIPOS>BOND
     1     1     2    2
     2     2     3    1
     3     2    19   am
     4     3     4    1
     5     3    31    1
     6     3    32    1
     7     4    18    1
     8     4     5    2
     9     5     6    1
    10     5    33    1
    11     6     7    1
    12     7     8    1
    13     7    18    2
    14     8    17   ar
    15     8     9   ar
    16     9    10   ar
    17     9    34    1
    18    10    11   ar
    19    10    35    1
    20    11    12   ar
    21    11    36    1
    22    12    13    1
    23    12    17   ar
    24    13    14    1
    25    13    15    1
    26    13    16    1
    27    17    37    1
    28    19    20    1
    29    19    38    1
    30    20    21    1
    31    20    29    1
    32    20    22    1
    33    22    23    1
    34    22    39    1
    35    22    40    1
    36    23    24    1
    37    23    29    1
    38    23    25    1
    39    25    26    1
    40    26    27    1
    41    26    41    1
    42    26    42    1
    43    27    28    1
    44    27    43    1
    45    27    44    1
    46    28    29    1
    47    28    45    1
    48    28    46    1
    49    29    30    1
@<TRIPOS>SUBSTRUCTURE
     1 ZINC000188380122        1 TEMP              0 ****  ****    0 ROOT


##########                                Name:    ZINC000541252362
##########                DOCK_Rotatable_Bonds:                   5
##########                         Heavy_Atoms:                  27
##########                    Molecular_Weight:             401.254
##########                DOCK_Rotatable_Bonds:                   5
##########                       Formal_Charge:          -0.0199999
##########                     HBond_Acceptors:                   9
##########                        HBond_Donors:                   1
##########                         Heavy_Atoms:                  27
##########                          Grid_Score:          -30.733402
##########                     Grid_vdw_energy:          -27.598133
##########                      Grid_es_energy:           -3.135269
##########           Internal_energy_repulsive:            3.670802

@<TRIPOS>MOLECULE
ZINC000541252362
 41 44 1 0 0
SMALL
USER_CHARGES


@<TRIPOS>ATOM
      1 C1         -9.0743    1.0272   63.2988 C.3     1  ZINC000541252362    0.1000
      2 N2         -9.0835    0.7483   61.8606 N.pl3   1  ZINC000541252362   -0.3800
      3 C3         -8.3634    1.3773   60.9143 C.2     1  ZINC000541252362    0.2600
      4 N4         -8.6487    0.8407   59.7574 N.2     1  ZINC000541252362   -0.5300
      5 C5         -9.5494   -0.1375   59.9211 C.2     1  ZINC000541252362    0.2700
      6 C6        -10.1186   -0.9790   58.8393 C.ar    1  ZINC000541252362    0.0000
      7 C7        -11.0289   -1.9887   59.1454 C.ar    1  ZINC000541252362   -0.1000
      8 C8        -11.5580   -2.7708   58.1378 C.ar    1  ZINC000541252362   -0.1000
      9 C9        -11.1874   -2.5559   56.8241 C.ar    1  ZINC000541252362   -0.1300
     10 C10       -10.2803   -1.5512   56.5098 C.ar    1  ZINC000541252362    0.1400
     11 N11        -9.9073   -1.3365   55.1781 N.am    1  ZINC000541252362   -0.6800
     12 C12       -10.8064   -0.8591   54.2950 C.2     1  ZINC000541252362    0.5100
     13 O13       -11.9390   -0.6156   54.6542 O.2     1  ZINC000541252362   -0.4900
     14 C14       -10.4047   -0.6279   52.8610 C.3     1  ZINC000541252362   -0.0600
     15 C15        -9.1862    0.2577   52.8172 C.2     1  ZINC000541252362    0.0700
     16 C16        -7.9326   -0.1408   52.5081 C.2     1  ZINC000541252362   -0.0700
     17 N17        -7.1275    0.9627   52.5836 N.pl3   1  ZINC000541252362   -0.3500
     18 C18        -5.7898    1.1461   52.3769 C.2     1  ZINC000541252362    0.0700
     19 C19        -5.2326    2.3674   52.5224 C.2     1  ZINC000541252362   -0.0500
     20 Cl20       -3.5304    2.5783   52.2548 Cl      1  ZINC000541252362   -0.0200
     21 C21        -6.0249    3.4689   52.8890 C.2     1  ZINC000541252362   -0.0900
     22 C22        -7.3592    3.2996   53.0975 C.2     1  ZINC000541252362    0.0200
     23 Cl23       -8.3539    4.6484   53.5503 Cl      1  ZINC000541252362   -0.0100
     24 C24        -7.9256    2.0174   52.9419 C.2     1  ZINC000541252362    0.2200
     25 N25        -9.1662    1.5680   53.0716 N.2     1  ZINC000541252362   -0.4300
     26 C26        -9.7489   -0.7580   57.5152 C.ar    1  ZINC000541252362   -0.0800
     27 N27        -9.8411   -0.2323   61.1998 N.2     1  ZINC000541252362   -0.3100
     28 H28        -8.3082    0.4206   63.7816 H       1  ZINC000541252362    0.0800
     29 H29        -8.8587    2.0830   63.4628 H       1  ZINC000541252362    0.0900
     30 H30       -10.0493    0.7855   63.7220 H       1  ZINC000541252362    0.0900
     31 H31        -7.6687    2.1871   61.0819 H       1  ZINC000541252362    0.2200
     32 H32       -11.3203   -2.1600   60.1712 H       1  ZINC000541252362    0.1300
     33 H33       -12.2633   -3.5528   58.3772 H       1  ZINC000541252362    0.1300
     34 H34       -11.6035   -3.1706   56.0397 H       1  ZINC000541252362    0.1300
     35 H35        -9.0015   -1.5313   54.8909 H       1  ZINC000541252362    0.4100
     36 H36       -10.1764   -1.5836   52.3891 H       1  ZINC000541252362    0.1200
     37 H37       -11.2237   -0.1457   52.3274 H       1  ZINC000541252362    0.1200
     38 H38        -7.6238   -1.1432   52.2503 H       1  ZINC000541252362    0.1900
     39 H39        -5.1721    0.3064   52.0948 H       1  ZINC000541252362    0.1800
     40 H40        -5.5771    4.4448   53.0051 H       1  ZINC000541252362    0.1600
     41 H41        -9.0441    0.0236   57.2730 H       1  ZINC000541252362    0.1500
@<TRIPOS>BOND
     1     1     2    1
     2     1    28    1
     3     1    29    1
     4     1    30    1
     5     2    27    1
     6     2     3    1
     7     3     4    2
     8     3    31    1
     9     4     5    1
    10     5     6    1
    11     5    27    2
    12     6    26   ar
    13     6     7   ar
    14     7     8   ar
    15     7    32    1
    16     8     9   ar
    17     8    33    1
    18     9    10   ar
    19     9    34    1
    20    10    11    1
    21    10    26   ar
    22    11    12   am
    23    11    35    1
    24    12    13    2
    25    12    14    1
    26    14    15    1
    27    14    36    1
    28    14    37    1
    29    15    25    1
    30    15    16    2
    31    16    17    1
    32    16    38    1
    33    17    24    1
    34    17    18    1
    35    18    19    2
    36    18    39    1
    37    19    20    1
    38    19    21    1
    39    21    22    2
    40    21    40    1
    41    22    23    1
    42    22    24    1
    43    24    25    2
    44    26    41    1
@<TRIPOS>SUBSTRUCTURE
     1 ZINC000541252362        1 TEMP              0 ****  ****    0 ROOT


##########                                Name:    ZINC001090961577
##########                DOCK_Rotatable_Bonds:                   9
##########                         Heavy_Atoms:                  24
##########                    Molecular_Weight:             352.458
##########                DOCK_Rotatable_Bonds:                   9
##########                       Formal_Charge:                0.02
##########                     HBond_Acceptors:                   8
##########                        HBond_Donors:                   1
##########                         Heavy_Atoms:                  24
##########                          Grid_Score:          -30.720388
##########                     Grid_vdw_energy:          -29.930672
##########                      Grid_es_energy:           -0.789716
##########           Internal_energy_repulsive:            7.736001

@<TRIPOS>MOLECULE
ZINC001090961577
 48 49 1 0 0
SMALL
USER_CHARGES


@<TRIPOS>ATOM
      1 C1         -7.5638    0.0113   66.4802 C.3     1  ZINC001090961577   -0.1400
      2 C2         -8.6598    0.6218   65.6042 C.3     1  ZINC001090961577   -0.0900
      3 S3         -8.6680   -0.1989   63.9865 S.3     1  ZINC001090961577   -0.2700
      4 C4         -9.0200    1.1622   62.8402 C.3     1  ZINC001090961577   -0.0700
      5 C5         -9.1670    0.6090   61.4214 C.3     1  ZINC001090961577   -0.1200
      6 C6        -10.5943    0.1826   61.1937 C.2     1  ZINC001090961577    0.5400
      7 O7        -11.4241    0.3537   62.0616 O.2     1  ZINC001090961577   -0.5300
      8 N8        -10.9488   -0.3889   60.0257 N.am    1  ZINC001090961577   -0.6200
      9 C9        -12.2994   -0.8501   59.6725 C.3     1  ZINC001090961577    0.1100
     10 C10       -12.2324   -1.4056   58.2343 C.3     1  ZINC001090961577   -0.1100
     11 H11       -12.1041   -2.4880   58.2446 H       1  ZINC001090961577    0.0900
     12 C12       -13.4849   -1.0185   57.4455 C.3     1  ZINC001090961577   -0.1400
     13 C13       -10.9745   -0.7093   57.6510 C.3     1  ZINC001090961577    0.1500
     14 H14       -11.2123    0.2936   57.2962 H       1  ZINC001090961577    0.1200
     15 N15       -10.3772   -1.5135   56.5821 N.pl3   1  ZINC001090961577   -0.6700
     16 C16        -9.6340   -0.9035   55.5934 C.ar    1  ZINC001090961577    0.5900
     17 N17        -9.7350   -1.3455   54.3466 N.ar    1  ZINC001090961577   -0.5700
     18 C18        -9.0410   -0.7891   53.3720 C.ar    1  ZINC001090961577    0.2700
     19 C19        -8.1886    0.2826   53.6709 C.ar    1  ZINC001090961577   -0.3000
     20 C20        -7.3944    0.9350   52.6139 C.2     1  ZINC001090961577    0.5300
     21 O21        -7.4333    0.5112   51.4758 O.2     1  ZINC001090961577   -0.5100
     22 O22        -6.6256    2.0011   52.9099 O.3     1  ZINC001090961577   -0.3600
     23 C23        -5.9923    2.6865   51.7974 C.3     1  ZINC001090961577    0.0400
     24 C24        -8.1115    0.7183   55.0008 C.ar    1  ZINC001090961577    0.2600
     25 N25        -8.8429    0.1115   55.9162 N.ar    1  ZINC001090961577   -0.5700
     26 C26       -10.0478   -0.6493   58.8882 C.3     1  ZINC001090961577    0.0900
     27 H27        -7.5588    0.5045   67.4522 H       1  ZINC001090961577    0.0700
     28 H28        -7.7563   -1.0531   66.6137 H       1  ZINC001090961577    0.0700
     29 H29        -6.5956    0.1478   65.9985 H       1  ZINC001090961577    0.0700
     30 H30        -9.6280    0.4853   66.0858 H       1  ZINC001090961577    0.0800
     31 H31        -8.4672    1.6863   65.4706 H       1  ZINC001090961577    0.0800
     32 H32        -9.9460    1.6557   63.1355 H       1  ZINC001090961577    0.0900
     33 H33        -8.2008    1.8808   62.8669 H       1  ZINC001090961577    0.0900
     34 H34        -8.8992    1.3816   60.7006 H       1  ZINC001090961577    0.1000
     35 H35        -8.5070   -0.2493   61.2958 H       1  ZINC001090961577    0.1000
     36 H36       -12.6142   -1.6358   60.3591 H       1  ZINC001090961577    0.0800
     37 H37       -12.9991   -0.0153   59.7152 H       1  ZINC001090961577    0.0800
     38 H38       -13.5783    0.0672   57.4219 H       1  ZINC001090961577    0.0600
     39 H39       -13.4047   -1.3984   56.4270 H       1  ZINC001090961577    0.0600
     40 H40       -14.3639   -1.4485   57.9256 H       1  ZINC001090961577    0.0700
     41 H41       -10.5044   -2.4751   56.5698 H       1  ZINC001090961577    0.4200
     42 H42        -9.1280   -1.1545   52.3594 H       1  ZINC001090961577    0.1800
     43 H43        -5.4040    3.5235   52.1737 H       1  ZINC001090961577    0.1100
     44 H44        -5.3397    1.9929   51.2673 H       1  ZINC001090961577    0.0700
     45 H45        -6.7579    3.0577   51.1161 H       1  ZINC001090961577    0.0700
     46 H46        -7.4663    1.5410   55.2716 H       1  ZINC001090961577    0.1800
     47 H47        -9.3236    0.1583   58.7810 H       1  ZINC001090961577    0.0900
     48 H48        -9.5370   -1.6023   59.0261 H       1  ZINC001090961577    0.0800
@<TRIPOS>BOND
     1     1     2    1
     2     1    27    1
     3     1    28    1
     4     1    29    1
     5     2     3    1
     6     2    30    1
     7     2    31    1
     8     3     4    1
     9     4     5    1
    10     4    32    1
    11     4    33    1
    12     5     6    1
    13     5    34    1
    14     5    35    1
    15     6     7    2
    16     6     8   am
    17     8    26    1
    18     8     9    1
    19     9    10    1
    20     9    36    1
    21     9    37    1
    22    10    11    1
    23    10    12    1
    24    10    13    1
    25    12    38    1
    26    12    39    1
    27    12    40    1
    28    13    14    1
    29    13    15    1
    30    13    26    1
    31    15    16    1
    32    15    41    1
    33    16    25   ar
    34    16    17   ar
    35    17    18   ar
    36    18    19   ar
    37    18    42    1
    38    19    20    1
    39    19    24   ar
    40    20    21    2
    41    20    22    1
    42    22    23    1
    43    23    43    1
    44    23    44    1
    45    23    45    1
    46    24    25   ar
    47    24    46    1
    48    26    47    1
    49    26    48    1
@<TRIPOS>SUBSTRUCTURE
     1 ZINC001090961577        1 TEMP              0 ****  ****    0 ROOT


##########                                Name:    ZINC000562561773
##########                DOCK_Rotatable_Bonds:                   6
##########                         Heavy_Atoms:                  26
##########                    Molecular_Weight:             371.466
##########                DOCK_Rotatable_Bonds:                   6
##########                       Formal_Charge:           0.0199999
##########                     HBond_Acceptors:                   9
##########                        HBond_Donors:                   0
##########                         Heavy_Atoms:                  26
##########                          Grid_Score:          -30.720173
##########                     Grid_vdw_energy:          -30.207653
##########                      Grid_es_energy:           -0.512520
##########           Internal_energy_repulsive:            9.865574

@<TRIPOS>MOLECULE
ZINC000562561773
 47 50 1 0 0
SMALL
USER_CHARGES


@<TRIPOS>ATOM
      1 C1        -10.6940    0.6613   61.4980 C.3     1  ZINC000562561773   -0.1100
      2 C2         -9.6624    1.0181   60.4590 C.ar    1  ZINC000562561773   -0.0400
      3 C3         -8.9198    2.1754   60.5941 C.ar    1  ZINC000562561773   -0.1200
      4 C4         -7.9731    2.5079   59.6454 C.ar    1  ZINC000562561773   -0.0700
      5 C5         -7.7638    1.6758   58.5475 C.ar    1  ZINC000562561773   -0.0300
      6 C6         -6.7461    2.0318   57.5274 C.2     1  ZINC000562561773    0.2200
      7 N7         -6.8598    1.8843   56.2332 N.2     1  ZINC000562561773   -0.3700
      8 O8         -5.8526    2.2716   55.6794 O.3     1  ZINC000562561773    0.0900
      9 C9         -4.9745    2.7154   56.5843 C.2     1  ZINC000562561773    0.1900
     10 C10        -3.6055    3.2785   56.3020 C.3     1  ZINC000562561773   -0.0100
     11 C11        -2.6072    2.7280   57.3223 C.3     1  ZINC000562561773   -0.1200
     12 S12        -2.7137    3.6913   58.8510 S.3     1  ZINC000562561773    0.0600
     13 C13        -1.5392    2.8267   59.8398 C.2     1  ZINC000562561773    0.2100
     14 N14        -0.8314    1.7793   59.4760 N.2     1  ZINC000562561773   -0.3300
     15 N15        -0.0707    1.3949   60.4366 N.2     1  ZINC000562561773   -0.0300
     16 N16        -0.2320    2.1529   61.4668 N.2     1  ZINC000562561773   -0.0700
     17 N17        -1.1911    3.1188   61.1153 N.pl3   1  ZINC000562561773   -0.3600
     18 C18        -1.7095    4.2034   61.9526 C.3     1  ZINC000562561773    0.0800
     19 N19        -5.5302    2.5750   57.7620 N.2     1  ZINC000562561773   -0.4600
     20 C20        -8.5113    0.5093   58.4101 C.ar    1  ZINC000562561773   -0.1100
     21 C21        -9.4564    0.1791   59.3700 C.ar    1  ZINC000562561773    0.0800
     22 N22       -10.2087   -0.9905   59.2368 N.3     1  ZINC000562561773   -0.4800
     23 C23       -11.0311   -0.9564   58.0005 C.3     1  ZINC000562561773    0.0400
     24 C24       -11.3513   -2.4509   57.7464 C.3     1  ZINC000562561773   -0.1200
     25 C25       -10.0416   -3.1603   58.1602 C.3     1  ZINC000562561773   -0.1300
     26 C26        -9.3306   -2.1732   59.1046 C.3     1  ZINC000562561773    0.0400
     27 H27       -10.2294    0.0606   62.2800 H       1  ZINC000562561773    0.0700
     28 H28       -11.1009    1.5736   61.9343 H       1  ZINC000562561773    0.0600
     29 H29       -11.4977    0.0917   61.0315 H       1  ZINC000562561773    0.0800
     30 H30        -9.0806    2.8220   61.4441 H       1  ZINC000562561773    0.1400
     31 H31        -7.3949    3.4136   59.7543 H       1  ZINC000562561773    0.1400
     32 H32        -3.2945    2.9911   55.2976 H       1  ZINC000562561773    0.1200
     33 H33        -3.6377    4.3656   56.3751 H       1  ZINC000562561773    0.1300
     34 H34        -2.8412    1.6846   57.5333 H       1  ZINC000562561773    0.1100
     35 H35        -1.5975    2.7992   56.9177 H       1  ZINC000562561773    0.1100
     36 H36        -1.0906    5.0910   61.8218 H       1  ZINC000562561773    0.1000
     37 H37        -2.7351    4.4294   61.6606 H       1  ZINC000562561773    0.1000
     38 H38        -1.6887    3.8967   62.9984 H       1  ZINC000562561773    0.1100
     39 H39        -8.3528   -0.1386   57.5607 H       1  ZINC000562561773    0.1300
     40 H40       -11.9474   -0.3890   58.1634 H       1  ZINC000562561773    0.0900
     41 H41       -10.4611   -0.5387   57.1705 H       1  ZINC000562561773    0.0500
     42 H42       -12.1818   -2.7791   58.3715 H       1  ZINC000562561773    0.0800
     43 H43       -11.5681   -2.6252   56.6925 H       1  ZINC000562561773    0.0700
     44 H44       -10.2639   -4.0905   58.6830 H       1  ZINC000562561773    0.0800
     45 H45        -9.4242   -3.3563   57.2834 H       1  ZINC000562561773    0.0700
     46 H46        -8.3714   -1.8779   58.6792 H       1  ZINC000562561773    0.0500
     47 H47        -9.1807   -2.6354   60.0803 H       1  ZINC000562561773    0.0800
@<TRIPOS>BOND
     1     1     2    1
     2     1    27    1
     3     1    28    1
     4     1    29    1
     5     2    21   ar
     6     2     3   ar
     7     3     4   ar
     8     3    30    1
     9     4     5   ar
    10     4    31    1
    11     5     6    1
    12     5    20   ar
    13     6    19    1
    14     6     7    2
    15     7     8    1
    16     8     9    1
    17     9    10    1
    18     9    19    2
    19    10    11    1
    20    10    32    1
    21    10    33    1
    22    11    12    1
    23    11    34    1
    24    11    35    1
    25    12    13    1
    26    13    17    1
    27    13    14    2
    28    14    15    1
    29    15    16    2
    30    16    17    1
    31    17    18    1
    32    18    36    1
    33    18    37    1
    34    18    38    1
    35    20    21   ar
    36    20    39    1
    37    21    22    1
    38    22    26    1
    39    22    23    1
    40    23    24    1
    41    23    40    1
    42    23    41    1
    43    24    25    1
    44    24    42    1
    45    24    43    1
    46    25    26    1
    47    25    44    1
    48    25    45    1
    49    26    46    1
    50    26    47    1
@<TRIPOS>SUBSTRUCTURE
     1 ZINC000562561773        1 TEMP              0 ****  ****    0 ROOT


##########                                Name:    ZINC000186316242
##########                DOCK_Rotatable_Bonds:                   7
##########                         Heavy_Atoms:                  28
##########                    Molecular_Weight:             392.525
##########                DOCK_Rotatable_Bonds:                   7
##########                       Formal_Charge:         -0.00999981
##########                     HBond_Acceptors:                   6
##########                        HBond_Donors:                   0
##########                         Heavy_Atoms:                  28
##########                          Grid_Score:          -30.718977
##########                     Grid_vdw_energy:          -29.319122
##########                      Grid_es_energy:           -1.399855
##########           Internal_energy_repulsive:           22.472643

@<TRIPOS>MOLECULE
ZINC000186316242
 52 55 1 0 0
SMALL
USER_CHARGES


@<TRIPOS>ATOM
      1 C1        -13.0546   -0.6246   60.0514 C.3     1  ZINC000186316242   -0.1500
      2 C2        -11.9123   -1.6413   60.0010 C.3     1  ZINC000186316242    0.1000
      3 N3        -11.0208   -1.3191   58.8840 N.am    1  ZINC000186316242   -0.5900
      4 C4         -9.8603   -0.6732   59.1128 C.2     1  ZINC000186316242    0.5900
      5 O5         -9.1201   -0.4057   58.1855 O.2     1  ZINC000186316242   -0.5000
      6 C6         -9.4881   -0.2911   60.4863 C.2     1  ZINC000186316242    0.0100
      7 C7         -8.4810   -0.9037   61.1706 C.2     1  ZINC000186316242   -0.2100
      8 S8         -8.3480   -0.1924   62.7201 S.3     1  ZINC000186316242    0.2000
      9 C9         -9.6744    0.9037   62.3519 C.2     1  ZINC000186316242    0.0700
     10 C10       -10.2138    1.9296   63.2709 C.ar    1  ZINC000186316242    0.1900
     11 C11        -9.6574    2.0823   64.5404 C.ar    1  ZINC000186316242   -0.1500
     12 C12       -10.1728    3.0470   65.3889 C.ar    1  ZINC000186316242   -0.0700
     13 C13       -11.2280    3.8282   64.9403 C.ar    1  ZINC000186316242   -0.1600
     14 C14       -11.7320    3.6232   63.6683 C.ar    1  ZINC000186316242    0.1100
     15 N15       -11.2205    2.7019   62.8785 N.ar    1  ZINC000186316242   -0.4500
     16 N16       -10.1031    0.6775   61.1481 N.2     1  ZINC000186316242   -0.3900
     17 C17       -11.3908   -1.6990   57.5183 C.3     1  ZINC000186316242    0.1400
     18 H18       -12.3931   -2.1269   57.5038 H       1  ZINC000186316242    0.1000
     19 C19       -10.3685   -2.7078   56.9464 C.3     1  ZINC000186316242   -0.1300
     20 C20       -10.2209   -2.2535   55.4725 C.3     1  ZINC000186316242    0.0400
     21 N21       -10.2854   -0.7726   55.5652 N.3     1  ZINC000186316242   -0.4900
     22 C22       -10.6414   -0.1790   54.2695 C.3     1  ZINC000186316242    0.0800
     23 C23        -9.3848    0.1500   53.5054 C.ar    1  ZINC000186316242   -0.0700
     24 C24        -8.9130    1.4490   53.4775 C.ar    1  ZINC000186316242   -0.1000
     25 C25        -7.7603    1.7507   52.7765 C.ar    1  ZINC000186316242   -0.1200
     26 C26        -7.0793    0.7534   52.1040 C.ar    1  ZINC000186316242   -0.1200
     27 C27        -7.5507   -0.5458   52.1327 C.ar    1  ZINC000186316242   -0.1200
     28 C28        -8.7009   -0.8484   52.8371 C.ar    1  ZINC000186316242   -0.1100
     29 C29       -11.3179   -0.4762   56.5851 C.3     1  ZINC000186316242    0.0400
     30 H30       -13.7179   -0.8642   60.8824 H       1  ZINC000186316242    0.0700
     31 H31       -12.6447    0.3758   60.1904 H       1  ZINC000186316242    0.0500
     32 H32       -13.6149   -0.6610   59.1171 H       1  ZINC000186316242    0.0400
     33 H33       -11.3520   -1.6048   60.9352 H       1  ZINC000186316242    0.1200
     34 H34       -12.3221   -2.6416   59.8618 H       1  ZINC000186316242    0.0700
     35 H35        -7.8662   -1.7083   60.7950 H       1  ZINC000186316242    0.1900
     36 H36        -8.8363    1.4563   64.8574 H       1  ZINC000186316242    0.1400
     37 H37        -9.7628    3.1883   66.3779 H       1  ZINC000186316242    0.1400
     38 H38       -11.6525    4.5891   65.5785 H       1  ZINC000186316242    0.1400
     39 H39       -12.5536    4.2295   63.3167 H       1  ZINC000186316242    0.1600
     40 H40        -9.4159   -2.6310   57.4709 H       1  ZINC000186316242    0.0900
     41 H41       -10.7584   -3.7243   56.9996 H       1  ZINC000186316242    0.0700
     42 H42        -9.2610   -2.5721   55.0659 H       1  ZINC000186316242    0.0800
     43 H43       -11.0424   -2.6373   54.8676 H       1  ZINC000186316242    0.0400
     44 H44       -11.2396   -0.8879   53.6971 H       1  ZINC000186316242    0.0400
     45 H45       -11.2163    0.7326   54.4330 H       1  ZINC000186316242    0.0800
     46 H46        -9.4450    2.2282   54.0029 H       1  ZINC000186316242    0.1200
     47 H47        -7.3920    2.7657   52.7542 H       1  ZINC000186316242    0.1200
     48 H48        -6.1791    0.9892   51.5558 H       1  ZINC000186316242    0.1200
     49 H49        -7.0187   -1.3250   51.6070 H       1  ZINC000186316242    0.1200
     50 H50        -9.0692   -1.8634   52.8595 H       1  ZINC000186316242    0.1200
     51 H51       -12.2820   -0.3171   56.1021 H       1  ZINC000186316242    0.0500
     52 H52       -11.0342    0.4088   57.1545 H       1  ZINC000186316242    0.0800
@<TRIPOS>BOND
     1     1     2    1
     2     1    30    1
     3     1    31    1
     4     1    32    1
     5     2     3    1
     6     2    33    1
     7     2    34    1
     8     3     4   am
     9     3    17    1
    10     4     5    2
    11     4     6    1
    12     6    16    1
    13     6     7    2
    14     7     8    1
    15     7    35    1
    16     8     9    1
    17     9    10    1
    18     9    16    2
    19    10    15   ar
    20    10    11   ar
    21    11    12   ar
    22    11    36    1
    23    12    13   ar
    24    12    37    1
    25    13    14   ar
    26    13    38    1
    27    14    15   ar
    28    14    39    1
    29    17    18    1
    30    17    29    1
    31    17    19    1
    32    19    20    1
    33    19    40    1
    34    19    41    1
    35    20    21    1
    36    20    42    1
    37    20    43    1
    38    21    22    1
    39    21    29    1
    40    22    23    1
    41    22    44    1
    42    22    45    1
    43    23    28   ar
    44    23    24   ar
    45    24    25   ar
    46    24    46    1
    47    25    26   ar
    48    25    47    1
    49    26    27   ar
    50    26    48    1
    51    27    28   ar
    52    27    49    1
    53    28    50    1
    54    29    51    1
    55    29    52    1
@<TRIPOS>SUBSTRUCTURE
     1 ZINC000186316242        1 TEMP              0 ****  ****    0 ROOT


##########                                Name:    ZINC000182044395
##########                DOCK_Rotatable_Bonds:                   8
##########                         Heavy_Atoms:                  28
##########                    Molecular_Weight:             398.889
##########                DOCK_Rotatable_Bonds:                   8
##########                       Formal_Charge:          -0.0399999
##########                     HBond_Acceptors:                   6
##########                        HBond_Donors:                   2
##########                         Heavy_Atoms:                  28
##########                          Grid_Score:          -30.713358
##########                     Grid_vdw_energy:          -30.911116
##########                      Grid_es_energy:            0.197757
##########           Internal_energy_repulsive:           22.462156

@<TRIPOS>MOLECULE
ZINC000182044395
 51 53 1 0 0
SMALL
USER_CHARGES


@<TRIPOS>ATOM
      1 C1         -6.4719    1.1709   52.2134 C.3     1  ZINC000182044395   -0.1800
      2 C2         -7.4545    2.1164   52.9074 C.3     1  ZINC000182044395    0.0800
      3 N3         -7.4819    1.8248   54.3428 N.pl3   1  ZINC000182044395   -0.4800
      4 C4         -8.4885    1.0864   54.8279 C.2     1  ZINC000182044395    0.2500
      5 C5         -8.5877    0.7671   56.1663 C.2     1  ZINC000182044395   -0.3500
      6 C6         -9.7094   -0.0473   56.6596 C.2     1  ZINC000182044395    0.5900
      7 O7        -10.8517    0.2479   56.3637 O.2     1  ZINC000182044395   -0.5600
      8 N8         -9.4711   -1.1203   57.4396 N.am    1  ZINC000182044395   -0.7200
      9 C9        -10.5880   -1.9312   57.9309 C.3     1  ZINC000182044395    0.1100
     10 H10       -11.5059   -1.6289   57.4268 H       1  ZINC000182044395    0.0900
     11 C11       -10.3110   -3.4082   57.6436 C.3     1  ZINC000182044395   -0.1600
     12 C12       -10.7429   -1.7253   59.4391 C.3     1  ZINC000182044395    0.1100
     13 H13       -11.2621   -2.5809   59.8711 H       1  ZINC000182044395    0.1100
     14 O14        -9.4516   -1.5998   60.0378 O.3     1  ZINC000182044395   -0.5500
     15 C15       -11.5518   -0.4531   59.6997 C.3     1  ZINC000182044395   -0.1100
     16 C16       -12.9659   -0.8231   60.0661 C.ar    1  ZINC000182044395   -0.0800
     17 C17       -13.5308   -1.9794   59.5609 C.ar    1  ZINC000182044395   -0.1000
     18 C18       -14.8281   -2.3187   59.8967 C.ar    1  ZINC000182044395   -0.1200
     19 C19       -15.5603   -1.5022   60.7381 C.ar    1  ZINC000182044395   -0.1200
     20 C20       -14.9972   -0.3435   61.2394 C.ar    1  ZINC000182044395   -0.1200
     21 C21       -13.6985   -0.0062   60.9068 C.ar    1  ZINC000182044395   -0.1200
     22 C22        -7.5566    1.2597   57.0932 C.2     1  ZINC000182044395    0.4400
     23 O23        -7.6023    1.0096   58.2849 O.2     1  ZINC000182044395   -0.4900
     24 C24        -6.4626    2.0645   56.5180 C.ar    1  ZINC000182044395   -0.1800
     25 C25        -5.4391    2.5684   57.3200 C.ar    1  ZINC000182044395   -0.0200
     26 C26        -4.4357    3.3222   56.7496 C.ar    1  ZINC000182044395   -0.0700
     27 Cl27       -3.1584    3.9535   57.7415 Cl      1  ZINC000182044395   -0.0500
     28 C28        -4.4422    3.5782   55.3849 C.ar    1  ZINC000182044395   -0.0500
     29 C29        -5.4472    3.0858   54.5815 C.ar    1  ZINC000182044395   -0.1600
     30 C30        -6.4709    2.3224   55.1366 C.ar    1  ZINC000182044395    0.1900
     31 H31        -6.7889    0.1396   52.3688 H       1  ZINC000182044395    0.0700
     32 H32        -6.4516    1.3879   51.1454 H       1  ZINC000182044395    0.0800
     33 H33        -5.4754    1.3116   52.6319 H       1  ZINC000182044395    0.0700
     34 H34        -8.4511    1.9757   52.4889 H       1  ZINC000182044395    0.1000
     35 H35        -7.1375    3.1477   52.7521 H       1  ZINC000182044395    0.1100
     36 H36        -9.2479    0.7285   54.1484 H       1  ZINC000182044395    0.1800
     37 H37        -8.5602   -1.3557   57.6756 H       1  ZINC000182044395    0.4100
     38 H38       -10.2007   -3.5548   56.5692 H       1  ZINC000182044395    0.0600
     39 H39        -9.3932   -3.7106   58.1478 H       1  ZINC000182044395    0.0600
     40 H40       -11.1420   -4.0115   58.0092 H       1  ZINC000182044395    0.0600
     41 H41        -8.8289   -1.0690   59.5224 H       1  ZINC000182044395    0.3700
     42 H42       -11.5588    0.1636   58.8009 H       1  ZINC000182044395    0.0800
     43 H43       -11.0982    0.1044   60.5193 H       1  ZINC000182044395    0.0800
     44 H44       -12.9585   -2.6175   58.9039 H       1  ZINC000182044395    0.1200
     45 H45       -15.2695   -3.2218   59.5017 H       1  ZINC000182044395    0.1200
     46 H46       -16.5740   -1.7673   61.0004 H       1  ZINC000182044395    0.1200
     47 H47       -15.5709    0.2967   61.8932 H       1  ZINC000182044395    0.1200
     48 H48       -13.2574    0.8972   61.3012 H       1  ZINC000182044395    0.1200
     49 H49        -5.4327    2.3694   58.3815 H       1  ZINC000182044395    0.1500
     50 H50        -3.6507    4.1694   54.9485 H       1  ZINC000182044395    0.1500
     51 H51        -5.4408    3.2916   53.5214 H       1  ZINC000182044395    0.1500
@<TRIPOS>BOND
     1     1     2    1
     2     1    31    1
     3     1    32    1
     4     1    33    1
     5     2     3    1
     6     2    34    1
     7     2    35    1
     8     3    30    1
     9     3     4    1
    10     4     5    2
    11     4    36    1
    12     5     6    1
    13     5    22    1
    14     6     7    2
    15     6     8   am
    16     8     9    1
    17     8    37    1
    18     9    10    1
    19     9    11    1
    20     9    12    1
    21    11    38    1
    22    11    39    1
    23    11    40    1
    24    12    13    1
    25    12    14    1
    26    12    15    1
    27    14    41    1
    28    15    16    1
    29    15    42    1
    30    15    43    1
    31    16    21   ar
    32    16    17   ar
    33    17    18   ar
    34    17    44    1
    35    18    19   ar
    36    18    45    1
    37    19    20   ar
    38    19    46    1
    39    20    21   ar
    40    20    47    1
    41    21    48    1
    42    22    23    2
    43    22    24    1
    44    24    30   ar
    45    24    25   ar
    46    25    26   ar
    47    25    49    1
    48    26    27    1
    49    26    28   ar
    50    28    29   ar
    51    28    50    1
    52    29    30   ar
    53    29    51    1
@<TRIPOS>SUBSTRUCTURE
     1 ZINC000182044395        1 TEMP              0 ****  ****    0 ROOT


##########                                Name:    ZINC000957079511
##########                DOCK_Rotatable_Bonds:                   8
##########                         Heavy_Atoms:                  25
##########                    Molecular_Weight:             362.453
##########                DOCK_Rotatable_Bonds:                   8
##########                       Formal_Charge:        -4.32134e-07
##########                     HBond_Acceptors:                   8
##########                        HBond_Donors:                   2
##########                         Heavy_Atoms:                  25
##########                          Grid_Score:          -30.649330
##########                     Grid_vdw_energy:          -27.823746
##########                      Grid_es_energy:           -2.825584
##########           Internal_energy_repulsive:           10.599704

@<TRIPOS>MOLECULE
ZINC000957079511
 47 49 1 0 0
SMALL
USER_CHARGES


@<TRIPOS>ATOM
      1 C1         -5.7709    3.4617   55.3911 C.3     1  ZINC000957079511   -0.0700
      2 C2         -4.9499    3.5674   56.6505 C.2     1  ZINC000957079511    0.0300
      3 C3         -5.4288    3.5736   57.9091 C.2     1  ZINC000957079511   -0.0200
      4 C4         -6.8754    3.4770   58.3203 C.3     1  ZINC000957079511   -0.0600
      5 C5         -7.2418    2.0307   58.5325 C.2     1  ZINC000957079511    0.5100
      6 O6         -6.7043    1.1659   57.8736 O.2     1  ZINC000957079511   -0.5200
      7 N7         -8.1668    1.6982   59.4546 N.am    1  ZINC000957079511   -0.7200
      8 C8         -8.5243    0.2923   59.6597 C.3     1  ZINC000957079511    0.1400
      9 H9         -7.6321   -0.3214   59.7839 H       1  ZINC000957079511    0.1100
     10 C10        -9.4020   -0.2329   58.4962 C.3     1  ZINC000957079511    0.0800
     11 N11       -10.1665   -1.3522   59.0758 N.am    1  ZINC000957079511   -0.6200
     12 C12       -10.6960   -2.3820   58.3862 C.2     1  ZINC000957079511    0.5400
     13 O13       -11.3069   -3.2523   58.9696 O.2     1  ZINC000957079511   -0.5100
     14 C14       -10.5289   -2.4523   56.8901 C.3     1  ZINC000957079511    0.0500
     15 O15       -11.3606   -1.4687   56.2712 O.3     1  ZINC000957079511   -0.2800
     16 C16       -11.0888   -1.1569   54.9733 C.2     1  ZINC000957079511    0.1200
     17 C17       -10.1373   -1.7762   54.2685 C.2     1  ZINC000957079511   -0.3300
     18 S18       -10.0785   -1.1088   52.6423 S.3     1  ZINC000957079511    0.1300
     19 C19       -11.3858    0.0058   53.0187 C.2     1  ZINC000957079511   -0.1800
     20 C20       -11.7819   -0.1764   54.2798 C.2     1  ZINC000957079511   -0.1400
     21 C21       -10.2549   -1.1596   60.5307 C.3     1  ZINC000957079511    0.1100
     22 C22        -9.4818    0.1328   60.8701 C.3     1  ZINC000957079511   -0.1100
     23 H23       -10.1616    0.9823   60.9378 H       1  ZINC000957079511    0.0900
     24 C24        -8.6947   -0.0333   62.1715 C.3     1  ZINC000957079511   -0.1400
     25 N25        -4.3491    3.6839   58.7432 N.pl3   1  ZINC000957079511   -0.5600
     26 C26        -3.2472    3.7414   57.9646 C.2     1  ZINC000957079511    0.2000
     27 N27        -3.6138    3.6662   56.7144 N.2     1  ZINC000957079511   -0.4900
     28 H28        -5.8945    2.4119   55.1251 H       1  ZINC000957079511    0.0700
     29 H29        -6.7495    3.9123   55.5563 H       1  ZINC000957079511    0.0600
     30 H30        -5.2623    3.9843   54.5809 H       1  ZINC000957079511    0.0700
     31 H31        -7.0274    4.0301   59.2472 H       1  ZINC000957079511    0.1000
     32 H32        -7.5047    3.9002   57.5374 H       1  ZINC000957079511    0.1200
     33 H33        -8.5959    2.3897   59.9826 H       1  ZINC000957079511    0.4000
     34 H34       -10.0780    0.5484   58.1485 H       1  ZINC000957079511    0.0800
     35 H35        -8.7751   -0.5853   57.6773 H       1  ZINC000957079511    0.0800
     36 H36        -9.4873   -2.2619   56.6316 H       1  ZINC000957079511    0.0900
     37 H37       -10.8154   -3.4434   56.5386 H       1  ZINC000957079511    0.0900
     38 H38        -9.5011   -2.5657   54.6407 H       1  ZINC000957079511    0.1700
     39 H39       -11.8067    0.7253   52.3322 H       1  ZINC000957079511    0.1800
     40 H40       -12.5767    0.4011   54.7285 H       1  ZINC000957079511    0.1500
     41 H41       -11.2985   -1.0567   60.8282 H       1  ZINC000957079511    0.0800
     42 H42        -9.8025   -2.0074   61.0450 H       1  ZINC000957079511    0.0800
     43 H43        -8.0008   -0.8680   62.0723 H       1  ZINC000957079511    0.0600
     44 H44        -8.1372    0.8803   62.3780 H       1  ZINC000957079511    0.0600
     45 H45        -9.3855   -0.2304   62.9912 H       1  ZINC000957079511    0.0700
     46 H46        -4.3713    3.7150   59.7124 H       1  ZINC000957079511    0.4200
     47 H47        -2.2306    3.8307   58.3182 H       1  ZINC000957079511    0.2100
@<TRIPOS>BOND
     1     1     2    1
     2     1    28    1
     3     1    29    1
     4     1    30    1
     5     2    27    1
     6     2     3    2
     7     3     4    1
     8     3    25    1
     9     4     5    1
    10     4    31    1
    11     4    32    1
    12     5     6    2
    13     5     7   am
    14     7     8    1
    15     7    33    1
    16     8     9    1
    17     8    22    1
    18     8    10    1
    19    10    11    1
    20    10    34    1
    21    10    35    1
    22    11    12   am
    23    11    21    1
    24    12    13    2
    25    12    14    1
    26    14    15    1
    27    14    36    1
    28    14    37    1
    29    15    16    1
    30    16    20    1
    31    16    17    2
    32    17    18    1
    33    17    38    1
    34    18    19    1
    35    19    20    2
    36    19    39    1
    37    20    40    1
    38    21    22    1
    39    21    41    1
    40    21    42    1
    41    22    23    1
    42    22    24    1
    43    24    43    1
    44    24    44    1
    45    24    45    1
    46    25    26    1
    47    25    46    1
    48    26    27    2
    49    26    47    1
@<TRIPOS>SUBSTRUCTURE
     1 ZINC000957079511        1 TEMP              0 ****  ****    0 ROOT


##########                                Name:    ZINC000967287417
##########                DOCK_Rotatable_Bonds:                   7
##########                         Heavy_Atoms:                  25
##########                    Molecular_Weight:             347.414
##########                DOCK_Rotatable_Bonds:                   7
##########                       Formal_Charge:          -0.0200002
##########                     HBond_Acceptors:                   7
##########                        HBond_Donors:                   1
##########                         Heavy_Atoms:                  25
##########                          Grid_Score:          -30.641123
##########                     Grid_vdw_energy:          -28.986830
##########                      Grid_es_energy:           -1.654293
##########           Internal_energy_repulsive:            7.316825

@<TRIPOS>MOLECULE
ZINC000967287417
 50 52 1 0 0
SMALL
USER_CHARGES


@<TRIPOS>ATOM
      1 C1         -8.6227    0.7602   66.8287 C.3     1  ZINC000967287417    0.0300
      2 O2         -8.8315    0.2903   65.4954 O.3     1  ZINC000967287417   -0.3900
      3 C3         -9.4284    1.2547   64.6261 C.3     1  ZINC000967287417    0.1400
      4 C4         -9.6001    0.6559   63.2539 C.2     1  ZINC000967287417    0.0100
      5 C5         -8.8182   -0.3028   62.7103 C.2     1  ZINC000967287417   -0.1900
      6 C6         -9.3235   -0.5701   61.4283 C.2     1  ZINC000967287417   -0.1200
      7 C7        -10.4016    0.2492   61.2525 C.2     1  ZINC000967287417   -0.0700
      8 C8        -11.2468    0.3165   60.0559 C.2     1  ZINC000967287417    0.6100
      9 O9        -12.0440    1.2266   59.9245 O.2     1  ZINC000967287417   -0.5200
     10 N10       -11.1408   -0.6294   59.1018 N.am    1  ZINC000967287417   -0.7000
     11 C11       -11.9839   -0.5611   57.9056 C.3     1  ZINC000967287417    0.1600
     12 H12       -12.8656    0.0442   58.1160 H       1  ZINC000967287417    0.1000
     13 C13       -11.1925    0.0706   56.7581 C.3     1  ZINC000967287417    0.0400
     14 N14       -10.0152   -0.7553   56.4609 N.3     1  ZINC000967287417   -0.5300
     15 C15        -9.1577   -0.1083   55.4590 C.3     1  ZINC000967287417    0.1300
     16 C16        -8.0528    0.6445   56.1543 C.2     1  ZINC000967287417    0.0200
     17 N17        -7.7221    0.5600   57.4106 N.2     1  ZINC000967287417   -0.3500
     18 O18        -6.7929    1.2867   57.6763 O.3     1  ZINC000967287417    0.1000
     19 C19        -6.3754    1.9666   56.5992 C.2     1  ZINC000967287417   -0.0300
     20 C20        -5.2453    2.9620   56.5428 C.3     1  ZINC000967287417   -0.0800
     21 C21        -7.1659    1.5778   55.5703 C.2     1  ZINC000967287417   -0.2400
     22 C22       -10.4073   -2.1023   56.0271 C.3     1  ZINC000967287417    0.0500
     23 C23       -11.1753   -2.7988   57.1527 C.3     1  ZINC000967287417   -0.1100
     24 C24       -12.4173   -1.9737   57.5043 C.3     1  ZINC000967287417   -0.1000
     25 H25       -13.0763   -1.9202   56.6377 H       1  ZINC000967287417    0.0900
     26 C26       -13.1572   -2.6344   58.6693 C.3     1  ZINC000967287417   -0.1500
     27 O27       -10.5563    0.9821   62.3746 O.3     1  ZINC000967287417   -0.1600
     28 H28        -9.5794    1.0413   67.2689 H       1  ZINC000967287417    0.0500
     29 H29        -8.1665   -0.0300   67.4252 H       1  ZINC000967287417    0.0900
     30 H30        -7.9628    1.6276   66.8091 H       1  ZINC000967287417    0.0500
     31 H31       -10.4023    1.5454   65.0201 H       1  ZINC000967287417    0.0900
     32 H32        -8.7857    2.1327   64.5616 H       1  ZINC000967287417    0.0700
     33 H33        -7.9649   -0.7745   63.1747 H       1  ZINC000967287417    0.1600
     34 H34        -8.9348   -1.2853   60.7184 H       1  ZINC000967287417    0.1600
     35 H35       -10.5062   -1.3555   59.2070 H       1  ZINC000967287417    0.4100
     36 H36       -11.8248    0.1338   55.8724 H       1  ZINC000967287417    0.0500
     37 H37       -10.8707    1.0713   57.0465 H       1  ZINC000967287417    0.0900
     38 H38        -8.7256   -0.8667   54.8061 H       1  ZINC000967287417    0.0600
     39 H39        -9.7525    0.5860   54.8654 H       1  ZINC000967287417    0.0900
     40 H40        -4.7968    3.0589   57.5314 H       1  ZINC000967287417    0.0800
     41 H41        -4.4923    2.6169   55.8343 H       1  ZINC000967287417    0.0900
     42 H42        -5.6297    3.9302   56.2218 H       1  ZINC000967287417    0.0900
     43 H43        -7.1311    1.9092   54.5429 H       1  ZINC000967287417    0.1700
     44 H44       -11.0433   -2.0290   55.1449 H       1  ZINC000967287417    0.0400
     45 H45        -9.5153   -2.6798   55.7845 H       1  ZINC000967287417    0.0800
     46 H46       -11.4797   -3.7928   56.8248 H       1  ZINC000967287417    0.0700
     47 H47       -10.5352   -2.8849   58.0308 H       1  ZINC000967287417    0.0700
     48 H48       -12.4982   -2.6855   59.5360 H       1  ZINC000967287417    0.0600
     49 H49       -14.0406   -2.0467   58.9187 H       1  ZINC000967287417    0.0600
     50 H50       -13.4597   -3.6417   58.3830 H       1  ZINC000967287417    0.0600
@<TRIPOS>BOND
     1     1     2    1
     2     1    28    1
     3     1    29    1
     4     1    30    1
     5     2     3    1
     6     3     4    1
     7     3    31    1
     8     3    32    1
     9     4    27    1
    10     4     5    2
    11     5     6    1
    12     5    33    1
    13     6     7    2
    14     6    34    1
    15     7     8    1
    16     7    27    1
    17     8     9    2
    18     8    10   am
    19    10    11    1
    20    10    35    1
    21    11    12    1
    22    11    24    1
    23    11    13    1
    24    13    14    1
    25    13    36    1
    26    13    37    1
    27    14    15    1
    28    14    22    1
    29    15    16    1
    30    15    38    1
    31    15    39    1
    32    16    21    1
    33    16    17    2
    34    17    18    1
    35    18    19    1
    36    19    20    1
    37    19    21    2
    38    20    40    1
    39    20    41    1
    40    20    42    1
    41    21    43    1
    42    22    23    1
    43    22    44    1
    44    22    45    1
    45    23    24    1
    46    23    46    1
    47    23    47    1
    48    24    25    1
    49    24    26    1
    50    26    48    1
    51    26    49    1
    52    26    50    1
@<TRIPOS>SUBSTRUCTURE
     1 ZINC000967287417        1 TEMP              0 ****  ****    0 ROOT


##########                                Name:    ZINC000052999724
##########                DOCK_Rotatable_Bonds:                   6
##########                         Heavy_Atoms:                  25
##########                    Molecular_Weight:             398.571
##########                DOCK_Rotatable_Bonds:                   6
##########                       Formal_Charge:           0.0399994
##########                     HBond_Acceptors:                   8
##########                        HBond_Donors:                   1
##########                         Heavy_Atoms:                  25
##########                          Grid_Score:          -30.591558
##########                     Grid_vdw_energy:          -29.578125
##########                      Grid_es_energy:           -1.013433
##########           Internal_energy_repulsive:           25.073353

@<TRIPOS>MOLECULE
ZINC000052999724
 47 49 1 0 0
SMALL
USER_CHARGES


@<TRIPOS>ATOM
      1 C1         -6.9899    1.7894   54.8703 C.3     1  ZINC000052999724   -0.1400
      2 C2         -8.4634    1.6309   54.4899 C.3     1  ZINC000052999724   -0.0400
      3 C3         -8.9309    2.8750   53.7319 C.3     1  ZINC000052999724   -0.1400
      4 C4         -8.6280    0.4168   53.6127 C.2     1  ZINC000052999724   -0.0400
      5 C5         -9.7560   -0.3545   53.6012 C.2     1  ZINC000052999724   -0.2600
      6 C6        -10.9507   -0.1258   54.4191 C.2     1  ZINC000052999724    0.6000
      7 O7        -11.7891    0.6800   54.0598 O.2     1  ZINC000052999724   -0.5200
      8 N8        -11.1208   -0.8080   55.5690 N.am    1  ZINC000052999724   -0.6000
      9 C9        -10.1147   -1.7795   56.0190 C.3     1  ZINC000052999724    0.1100
     10 C10        -9.6969   -1.4296   57.4506 C.3     1  ZINC000052999724   -0.1400
     11 C11       -10.9419   -1.3574   58.3378 C.3     1  ZINC000052999724    0.1500
     12 N12       -10.5431   -1.0554   59.7148 N.am    1  ZINC000052999724   -1.1100
     13 S13        -9.4505    0.1525   60.0143 S.o2    1  ZINC000052999724    2.7200
     14 O14        -8.2142   -0.2789   59.4626 O.2     1  ZINC000052999724   -0.9500
     15 O15       -10.0851    1.3686   59.6432 O.2     1  ZINC000052999724   -0.9400
     16 C16        -9.2184    0.2247   61.7595 C.2     1  ZINC000052999724   -0.8000
     17 C17        -8.2249   -0.3629   62.4281 C.2     1  ZINC000052999724    0.0100
     18 C18        -8.2474   -0.1662   63.7980 C.2     1  ZINC000052999724   -0.1600
     19 C19        -9.2592    0.5811   64.2420 C.2     1  ZINC000052999724   -0.1700
     20 S20       -10.2569    1.0891   62.8855 S.3     1  ZINC000052999724    0.2100
     21 C21       -11.8736   -0.2574   57.8239 C.3     1  ZINC000052999724   -0.1500
     22 C22       -12.3130   -0.5896   56.3995 C.3     1  ZINC000052999724    0.1100
     23 S23        -9.5450   -1.6645   52.4476 S.3     1  ZINC000052999724    0.2100
     24 C24        -7.9788   -1.1204   52.0451 C.2     1  ZINC000052999724   -0.2400
     25 C25        -7.6606   -0.0221   52.7401 C.2     1  ZINC000052999724   -0.1300
     26 H26        -6.6568    0.9031   55.4104 H       1  ZINC000052999724    0.0600
     27 H27        -6.3924    1.9102   53.9668 H       1  ZINC000052999724    0.0600
     28 H28        -6.8709    2.6676   55.5049 H       1  ZINC000052999724    0.0600
     29 H29        -9.0609    1.5102   55.3935 H       1  ZINC000052999724    0.0800
     30 H30        -8.3334    2.9959   52.8283 H       1  ZINC000052999724    0.0600
     31 H31        -9.9807    2.7622   53.4608 H       1  ZINC000052999724    0.0600
     32 H32        -8.8119    3.7532   54.3663 H       1  ZINC000052999724    0.0600
     33 H33       -10.5403   -2.7827   55.9973 H       1  ZINC000052999724    0.0800
     34 H34        -9.2450   -1.7350   55.3633 H       1  ZINC000052999724    0.0900
     35 H35        -9.0232   -2.1972   57.8310 H       1  ZINC000052999724    0.0900
     36 H36        -9.1900   -0.4647   57.4561 H       1  ZINC000052999724    0.0800
     37 H37       -11.4621   -2.3149   58.3120 H       1  ZINC000052999724    0.0900
     38 H38       -10.9189   -1.5630   60.4509 H       1  ZINC000052999724    0.4200
     39 H39        -7.4610   -0.9479   61.9376 H       1  ZINC000052999724    0.1600
     40 H40        -7.5025   -0.5864   64.4575 H       1  ZINC000052999724    0.1500
     41 H41        -9.4365    0.8380   65.2760 H       1  ZINC000052999724    0.1800
     42 H42       -12.7490   -0.1909   58.4700 H       1  ZINC000052999724    0.1000
     43 H43       -11.3461    0.6965   57.8259 H       1  ZINC000052999724    0.0800
     44 H44       -12.8956    0.2379   55.9945 H       1  ZINC000052999724    0.1000
     45 H45       -12.9178   -1.4964   56.4059 H       1  ZINC000052999724    0.0800
     46 H46        -7.3323   -1.5965   51.3229 H       1  ZINC000052999724    0.1700
     47 H47        -6.7098    0.4783   52.6296 H       1  ZINC000052999724    0.1400
@<TRIPOS>BOND
     1     1     2    1
     2     1    26    1
     3     1    27    1
     4     1    28    1
     5     2     3    1
     6     2     4    1
     7     2    29    1
     8     3    30    1
     9     3    31    1
    10     3    32    1
    11     4    25    1
    12     4     5    2
    13     5     6    1
    14     5    23    1
    15     6     7    2
    16     6     8   am
    17     8    22    1
    18     8     9    1
    19     9    10    1
    20     9    33    1
    21     9    34    1
    22    10    11    1
    23    10    35    1
    24    10    36    1
    25    11    12    1
    26    11    21    1
    27    11    37    1
    28    12    13   am
    29    12    38    1
    30    13    14    2
    31    13    15    2
    32    13    16    1
    33    16    20    1
    34    16    17    2
    35    17    18    1
    36    17    39    1
    37    18    19    2
    38    18    40    1
    39    19    20    1
    40    19    41    1
    41    21    22    1
    42    21    42    1
    43    21    43    1
    44    22    44    1
    45    22    45    1
    46    23    24    1
    47    24    25    2
    48    24    46    1
    49    25    47    1
@<TRIPOS>SUBSTRUCTURE
     1 ZINC000052999724        1 TEMP              0 ****  ****    0 ROOT


##########                                Name:    ZINC001058772245
##########                DOCK_Rotatable_Bonds:                  11
##########                         Heavy_Atoms:                  22
##########                    Molecular_Weight:             335.375
##########                DOCK_Rotatable_Bonds:                  11
##########                       Formal_Charge:          0.00999964
##########                     HBond_Acceptors:                   9
##########                        HBond_Donors:                   2
##########                         Heavy_Atoms:                  22
##########                          Grid_Score:          -30.552736
##########                     Grid_vdw_energy:          -28.766857
##########                      Grid_es_energy:           -1.785879
##########           Internal_energy_repulsive:           67.647896

@<TRIPOS>MOLECULE
ZINC001058772245
 41 41 1 0 0
SMALL
USER_CHARGES


@<TRIPOS>ATOM
      1 C1         -7.8440    2.9211   59.7393 C.3     1  ZINC001058772245   -0.1700
      2 C2         -8.4882    2.2212   58.5409 C.3     1  ZINC001058772245   -0.1400
      3 C3         -7.9232    2.8057   57.2448 C.3     1  ZINC001058772245   -0.1500
      4 C4         -8.1874    0.7458   58.5997 C.2     1  ZINC001058772245    0.5300
      5 O5         -7.3856    0.2593   57.8307 O.2     1  ZINC001058772245   -0.5200
      6 N6         -8.8095   -0.0333   59.5067 N.am    1  ZINC001058772245   -0.5900
      7 C7         -9.7780    0.5544   60.4356 C.3     1  ZINC001058772245    0.0800
      8 C8         -9.7765   -0.2392   61.7437 C.3     1  ZINC001058772245    0.0400
      9 O9         -8.4527   -0.2694   62.2810 O.3     1  ZINC001058772245   -0.5700
     10 C10        -8.5171   -1.4676   59.5638 C.3     1  ZINC001058772245    0.1100
     11 C11        -9.3780   -2.2049   58.5361 C.3     1  ZINC001058772245    0.1000
     12 N12       -10.7590   -2.2792   59.0192 N.am    1  ZINC001058772245   -0.7100
     13 C13       -11.6999   -2.8971   58.2781 C.2     1  ZINC001058772245    0.6000
     14 O14       -11.4022   -3.3945   57.2088 O.2     1  ZINC001058772245   -0.5300
     15 C15       -13.0886   -2.9703   58.7630 C.2     1  ZINC001058772245    0.0000
     16 C16       -14.0667   -3.6343   58.1067 C.2     1  ZINC001058772245   -0.2200
     17 S17       -15.5234   -3.4832   58.9884 S.3     1  ZINC001058772245    0.2300
     18 C18       -14.7432   -2.5428   60.1815 C.2     1  ZINC001058772245    0.0000
     19 N19       -13.4982   -2.3915   59.8948 N.2     1  ZINC001058772245   -0.4400
     20 C20       -10.0027    2.4350   58.5791 C.3     1  ZINC001058772245    0.2900
     21 F21       -10.3309    3.5787   57.8433 F       1  ZINC001058772245   -0.1900
     22 F22       -10.6448    1.3230   58.0236 F       1  ZINC001058772245   -0.2000
     23 H23        -8.2864    3.9095   59.8638 H       1  ZINC001058772245    0.0800
     24 H24        -8.0145    2.3308   60.6396 H       1  ZINC001058772245    0.0700
     25 H25        -6.7722    3.0217   59.5684 H       1  ZINC001058772245    0.0900
     26 H26        -6.9117    2.4312   57.0879 H       1  ZINC001058772245    0.0800
     27 H27        -8.5545    2.5092   56.4071 H       1  ZINC001058772245    0.0700
     28 H28        -7.9010    3.8932   57.3160 H       1  ZINC001058772245    0.0900
     29 H29        -9.5046    1.5899   60.6385 H       1  ZINC001058772245    0.0900
     30 H30       -10.7731    0.5217   59.9918 H       1  ZINC001058772245    0.1200
     31 H31       -10.4479    0.2369   62.4582 H       1  ZINC001058772245    0.0600
     32 H32       -10.1137   -1.2577   61.5511 H       1  ZINC001058772245    0.0700
     33 H33        -8.0980    0.6027   62.5021 H       1  ZINC001058772245    0.3800
     34 H34        -7.4632   -1.6328   59.3402 H       1  ZINC001058772245    0.1000
     35 H35        -8.7402   -1.8444   60.5619 H       1  ZINC001058772245    0.0900
     36 H36        -9.3531   -1.6671   57.5884 H       1  ZINC001058772245    0.0700
     37 H37        -8.9887   -3.2129   58.3923 H       1  ZINC001058772245    0.0700
     38 H38       -10.9963   -1.8837   59.8725 H       1  ZINC001058772245    0.4100
     39 H39       -13.9472   -4.1720   57.1778 H       1  ZINC001058772245    0.1900
     40 H40       -15.2269   -2.1349   61.0566 H       1  ZINC001058772245    0.2100
     41 H41       -10.3258    2.5625   59.6122 H       1  ZINC001058772245    0.1200
@<TRIPOS>BOND
     1     1     2    1
     2     1    23    1
     3     1    24    1
     4     1    25    1
     5     2     3    1
     6     2     4    1
     7     2    20    1
     8     3    26    1
     9     3    27    1
    10     3    28    1
    11     4     5    2
    12     4     6   am
    13     6     7    1
    14     6    10    1
    15     7     8    1
    16     7    29    1
    17     7    30    1
    18     8     9    1
    19     8    31    1
    20     8    32    1
    21     9    33    1
    22    10    11    1
    23    10    34    1
    24    10    35    1
    25    11    12    1
    26    11    36    1
    27    11    37    1
    28    12    13   am
    29    12    38    1
    30    13    14    2
    31    13    15    1
    32    15    19    1
    33    15    16    2
    34    16    17    1
    35    16    39    1
    36    17    18    1
    37    18    19    2
    38    18    40    1
    39    20    21    1
    40    20    22    1
    41    20    41    1
@<TRIPOS>SUBSTRUCTURE
     1 ZINC001058772245        1 TEMP              0 ****  ****    0 ROOT


##########                                Name:    ZINC000444811358
##########                DOCK_Rotatable_Bonds:                  11
##########                         Heavy_Atoms:                  27
##########                    Molecular_Weight:             374.455
##########                DOCK_Rotatable_Bonds:                  11
##########                       Formal_Charge:          0.00999966
##########                     HBond_Acceptors:                   6
##########                        HBond_Donors:                   2
##########                         Heavy_Atoms:                  27
##########                          Grid_Score:          -30.510134
##########                     Grid_vdw_energy:          -27.138617
##########                      Grid_es_energy:           -3.371517
##########           Internal_energy_repulsive:           21.528971

@<TRIPOS>MOLECULE
ZINC000444811358
 54 55 1 0 0
SMALL
USER_CHARGES


@<TRIPOS>ATOM
      1 C1         -6.5930    1.3838   52.0426 C.3     1  ZINC000444811358   -0.1100
      2 C2         -7.1709    1.5353   53.4261 C.ar    1  ZINC000444811358   -0.1300
      3 C3         -8.1188    0.6374   53.8798 C.ar    1  ZINC000444811358   -0.0700
      4 C4         -8.6511    0.7735   55.1474 C.ar    1  ZINC000444811358   -0.1500
      5 C5         -8.2332    1.8133   55.9675 C.ar    1  ZINC000444811358    0.1700
      6 N6         -8.7708    1.9524   57.2517 N.am    1  ZINC000444811358   -0.6800
      7 C7         -8.0020    1.7163   58.3334 C.2     1  ZINC000444811358    0.5200
      8 O8         -6.8442    1.3834   58.1934 O.2     1  ZINC000444811358   -0.5000
      9 C9         -8.5811    1.8661   59.7166 C.3     1  ZINC000444811358    0.0200
     10 N10        -9.6044    0.8346   59.9333 N.3     1  ZINC000444811358   -0.5000
     11 C11        -8.9913   -0.4397   60.3310 C.3     1  ZINC000444811358    0.0200
     12 C12        -8.8127   -1.3267   59.0971 C.3     1  ZINC000444811358    0.1100
     13 H13        -8.5406   -0.7086   58.2416 H       1  ZINC000444811358    0.1200
     14 O14        -7.7787   -2.2819   59.3429 O.3     1  ZINC000444811358   -0.5400
     15 C15       -10.1233   -2.0587   58.8013 C.3     1  ZINC000444811358    0.0300
     16 O16       -11.0756   -1.1348   58.2706 O.3     1  ZINC000444811358   -0.3000
     17 C17       -12.2728   -1.6418   57.8750 C.ar    1  ZINC000444811358    0.1300
     18 C18       -12.5664   -2.9802   58.0919 C.ar    1  ZINC000444811358   -0.2100
     19 C19       -13.7843   -3.4931   57.6893 C.ar    1  ZINC000444811358   -0.0800
     20 C20       -14.7101   -2.6737   57.0702 C.ar    1  ZINC000444811358   -0.1600
     21 C21       -14.4198   -1.3395   56.8525 C.ar    1  ZINC000444811358   -0.0800
     22 C22       -13.2057   -0.8204   57.2587 C.ar    1  ZINC000444811358   -0.1500
     23 C23       -10.5940    1.2751   60.9255 C.3     1  ZINC000444811358    0.0700
     24 C24        -9.8754    1.9346   62.1045 C.3     1  ZINC000444811358   -0.1400
     25 C25       -11.5482    2.2829   60.2816 C.3     1  ZINC000444811358   -0.1900
     26 C26        -7.2806    2.7146   55.5110 C.ar    1  ZINC000444811358   -0.1500
     27 C27        -6.7471    2.5707   54.2429 C.ar    1  ZINC000444811358    0.1200
     28 F28        -5.8202    3.4466   53.7970 F       1  ZINC000444811358   -0.1300
     29 H29        -5.7101    0.7461   52.0854 H       1  ZINC000444811358    0.0700
     30 H30        -7.3363    0.9318   51.3858 H       1  ZINC000444811358    0.0700
     31 H31        -6.3147    2.3641   51.6558 H       1  ZINC000444811358    0.0700
     32 H32        -8.4441   -0.1715   53.2424 H       1  ZINC000444811358    0.1400
     33 H33        -9.3920    0.0716   55.5003 H       1  ZINC000444811358    0.1300
     34 H34        -9.6968    2.2186   57.3637 H       1  ZINC000444811358    0.4100
     35 H35        -7.7888    1.7529   60.4564 H       1  ZINC000444811358    0.1300
     36 H36        -9.0331    2.8529   59.8163 H       1  ZINC000444811358    0.0700
     37 H37        -8.0191   -0.2490   60.7853 H       1  ZINC000444811358    0.0500
     38 H38        -9.6361   -0.9441   61.0507 H       1  ZINC000444811358    0.1000
     39 H39        -7.0900   -1.9697   59.9458 H       1  ZINC000444811358    0.3700
     40 H40        -9.9413   -2.8504   58.0746 H       1  ZINC000444811358    0.0600
     41 H41       -10.5126   -2.4932   59.7220 H       1  ZINC000444811358    0.0700
     42 H42       -11.8433   -3.6209   58.5748 H       1  ZINC000444811358    0.1300
     43 H43       -14.0134   -4.5349   57.8579 H       1  ZINC000444811358    0.1200
     44 H44       -15.6616   -3.0766   56.7558 H       1  ZINC000444811358    0.1200
     45 H45       -15.1445   -0.7016   56.3684 H       1  ZINC000444811358    0.1300
     46 H46       -12.9793    0.2218   57.0885 H       1  ZINC000444811358    0.1300
     47 H47       -11.1604    0.4142   61.2807 H       1  ZINC000444811358    0.0900
     48 H48        -9.4186    2.8679   61.7755 H       1  ZINC000444811358    0.0500
     49 H49       -10.5935    2.1413   62.8980 H       1  ZINC000444811358    0.0600
     50 H50        -9.1023    1.2642   62.4798 H       1  ZINC000444811358    0.0700
     51 H51       -12.0601    1.8132   59.4417 H       1  ZINC000444811358    0.0500
     52 H52       -12.2824    2.6097   61.0179 H       1  ZINC000444811358    0.0700
     53 H53       -10.9819    3.1438   59.9264 H       1  ZINC000444811358    0.0600
     54 H54        -6.9540    3.5244   56.1464 H       1  ZINC000444811358    0.1500
@<TRIPOS>BOND
     1     1     2    1
     2     1    29    1
     3     1    30    1
     4     1    31    1
     5     2    27   ar
     6     2     3   ar
     7     3     4   ar
     8     3    32    1
     9     4     5   ar
    10     4    33    1
    11     5     6    1
    12     5    26   ar
    13     6     7   am
    14     6    34    1
    15     7     8    2
    16     7     9    1
    17     9    10    1
    18     9    35    1
    19     9    36    1
    20    10    11    1
    21    10    23    1
    22    11    12    1
    23    11    37    1
    24    11    38    1
    25    12    13    1
    26    12    14    1
    27    12    15    1
    28    14    39    1
    29    15    16    1
    30    15    40    1
    31    15    41    1
    32    16    17    1
    33    17    22   ar
    34    17    18   ar
    35    18    19   ar
    36    18    42    1
    37    19    20   ar
    38    19    43    1
    39    20    21   ar
    40    20    44    1
    41    21    22   ar
    42    21    45    1
    43    22    46    1
    44    23    24    1
    45    23    25    1
    46    23    47    1
    47    24    48    1
    48    24    49    1
    49    24    50    1
    50    25    51    1
    51    25    52    1
    52    25    53    1
    53    26    27   ar
    54    26    54    1
    55    27    28    1
@<TRIPOS>SUBSTRUCTURE
     1 ZINC000444811358        1 TEMP              0 ****  ****    0 ROOT


##########                                Name:    ZINC000435005159
##########                DOCK_Rotatable_Bonds:                  12
##########                         Heavy_Atoms:                  30
##########                    Molecular_Weight:             401.508
##########                DOCK_Rotatable_Bonds:                  12
##########                       Formal_Charge:          -0.0399985
##########                     HBond_Acceptors:                   5
##########                        HBond_Donors:                   2
##########                         Heavy_Atoms:                  30
##########                          Grid_Score:          -30.486521
##########                     Grid_vdw_energy:          -29.737040
##########                      Grid_es_energy:           -0.749482
##########           Internal_energy_repulsive:           10.444444

@<TRIPOS>MOLECULE
ZINC000435005159
 57 59 1 0 0
SMALL
USER_CHARGES


@<TRIPOS>ATOM
      1 O1        -11.8316    1.5193   57.9791 O.2     1  ZINC000435005159   -0.5300
      2 C2        -10.9051    0.7884   58.2587 C.2     1  ZINC000435005159    0.5200
      3 C3        -10.0341    1.0976   59.4490 C.3     1  ZINC000435005159   -0.1400
      4 C4         -9.8898   -0.1557   60.3148 C.3     1  ZINC000435005159   -0.1200
      5 C5         -9.1556    0.2003   61.6090 C.3     1  ZINC000435005159    0.1200
      6 N6        -10.0317    1.0087   62.4608 N.am    1  ZINC000435005159   -0.7200
      7 C7         -9.8540    1.0147   63.7968 C.2     1  ZINC000435005159    0.5600
      8 O8         -8.9678    0.3485   64.2951 O.2     1  ZINC000435005159   -0.5300
      9 C9        -10.7369    1.8318   64.6562 C.ar    1  ZINC000435005159   -0.1900
     10 C10       -10.5599    1.8505   66.0447 C.ar    1  ZINC000435005159   -0.0200
     11 C11       -11.4128    2.6321   66.8042 C.ar    1  ZINC000435005159   -0.1800
     12 C12       -12.4034    3.3628   66.1734 C.ar    1  ZINC000435005159    0.1200
     13 N13       -12.5470    3.3254   64.8622 N.ar    1  ZINC000435005159   -0.4900
     14 C14       -11.7573    2.6019   64.0964 C.ar    1  ZINC000435005159    0.1400
     15 N15       -10.6578   -0.3036   57.5083 N.am    1  ZINC000435005159   -0.7300
     16 C16       -11.5045   -0.6041   56.3512 C.3     1  ZINC000435005159    0.1900
     17 H17       -12.1170    0.2656   56.1133 H       1  ZINC000435005159    0.1000
     18 C18       -10.6223   -0.9504   55.1499 C.3     1  ZINC000435005159   -0.1200
     19 C19       -10.4737    0.2812   54.2545 C.3     1  ZINC000435005159   -0.0800
     20 C20        -9.1148    0.2677   53.6031 C.ar    1  ZINC000435005159   -0.0800
     21 C21        -8.1571    1.1895   53.9827 C.ar    1  ZINC000435005159   -0.1200
     22 C22        -6.9106    1.1770   53.3853 C.ar    1  ZINC000435005159   -0.1200
     23 C23        -6.6216    0.2425   52.4085 C.ar    1  ZINC000435005159   -0.1200
     24 C24        -7.5790   -0.6798   52.0296 C.ar    1  ZINC000435005159   -0.1200
     25 C25        -8.8241   -0.6702   52.6301 C.ar    1  ZINC000435005159   -0.1200
     26 C26       -12.3975   -1.7747   56.6727 C.ar    1  ZINC000435005159   -0.1000
     27 C27       -13.7561   -1.5819   56.8402 C.ar    1  ZINC000435005159   -0.1100
     28 C28       -14.5753   -2.6556   57.1350 C.ar    1  ZINC000435005159   -0.1200
     29 C29       -14.0360   -3.9222   57.2618 C.ar    1  ZINC000435005159   -0.1200
     30 C30       -12.6776   -4.1150   57.0934 C.ar    1  ZINC000435005159   -0.1200
     31 C31       -11.8590   -3.0420   56.7943 C.ar    1  ZINC000435005159   -0.1000
     32 H32        -9.0501    1.4175   59.1060 H       1  ZINC000435005159    0.1000
     33 H33       -10.4908    1.8942   60.0363 H       1  ZINC000435005159    0.1000
     34 H34       -10.8783   -0.5479   60.5537 H       1  ZINC000435005159    0.0800
     35 H35        -9.3216   -0.9099   59.7703 H       1  ZINC000435005159    0.0800
     36 H36        -8.8811   -0.7143   62.1344 H       1  ZINC000435005159    0.0700
     37 H37        -8.2555    0.7675   61.3719 H       1  ZINC000435005159    0.0700
     38 H38       -10.7396    1.5394   62.0632 H       1  ZINC000435005159    0.4000
     39 H39        -9.7779    1.2696   66.5112 H       1  ZINC000435005159    0.1500
     40 H40       -11.3063    2.6708   67.8782 H       1  ZINC000435005159    0.1500
     41 H41       -13.0703    3.9736   66.7636 H       1  ZINC000435005159    0.1600
     42 H42       -11.9062    2.5973   63.0268 H       1  ZINC000435005159    0.1600
     43 H43        -9.9191   -0.8902   57.7344 H       1  ZINC000435005159    0.4000
     44 H44        -9.6395   -1.2659   55.5000 H       1  ZINC000435005159    0.0700
     45 H45       -11.0827   -1.7590   54.5822 H       1  ZINC000435005159    0.0800
     46 H46       -11.2456    0.2664   53.4851 H       1  ZINC000435005159    0.0700
     47 H47       -10.5787    1.1834   54.8572 H       1  ZINC000435005159    0.0700
     48 H48        -8.3829    1.9197   54.7458 H       1  ZINC000435005159    0.1200
     49 H49        -6.1627    1.8977   53.6813 H       1  ZINC000435005159    0.1200
     50 H50        -5.6480    0.2332   51.9413 H       1  ZINC000435005159    0.1200
     51 H51        -7.3534   -1.4098   51.2662 H       1  ZINC000435005159    0.1200
     52 H52        -9.5720   -1.3908   52.3340 H       1  ZINC000435005159    0.1200
     53 H53       -14.1774   -0.5925   56.7411 H       1  ZINC000435005159    0.1200
     54 H54       -15.6366   -2.5050   57.2667 H       1  ZINC000435005159    0.1200
     55 H55       -14.6759   -4.7609   57.4929 H       1  ZINC000435005159    0.1200
     56 H56       -12.2562   -5.1044   57.1928 H       1  ZINC000435005159    0.1200
     57 H57       -10.7977   -3.1926   56.6627 H       1  ZINC000435005159    0.1200
@<TRIPOS>BOND
     1     1     2    2
     2     2     3    1
     3     2    15   am
     4     3     4    1
     5     3    32    1
     6     3    33    1
     7     4     5    1
     8     4    34    1
     9     4    35    1
    10     5     6    1
    11     5    36    1
    12     5    37    1
    13     6     7   am
    14     6    38    1
    15     7     8    2
    16     7     9    1
    17     9    14   ar
    18     9    10   ar
    19    10    11   ar
    20    10    39    1
    21    11    12   ar
    22    11    40    1
    23    12    13   ar
    24    12    41    1
    25    13    14   ar
    26    14    42    1
    27    15    16    1
    28    15    43    1
    29    16    17    1
    30    16    18    1
    31    16    26    1
    32    18    19    1
    33    18    44    1
    34    18    45    1
    35    19    20    1
    36    19    46    1
    37    19    47    1
    38    20    25   ar
    39    20    21   ar
    40    21    22   ar
    41    21    48    1
    42    22    23   ar
    43    22    49    1
    44    23    24   ar
    45    23    50    1
    46    24    25   ar
    47    24    51    1
    48    25    52    1
    49    26    31   ar
    50    26    27   ar
    51    27    28   ar
    52    27    53    1
    53    28    29   ar
    54    28    54    1
    55    29    30   ar
    56    29    55    1
    57    30    31   ar
    58    30    56    1
    59    31    57    1
@<TRIPOS>SUBSTRUCTURE
     1 ZINC000435005159        1 TEMP              0 ****  ****    0 ROOT


##########                                Name:    ZINC001340305486
##########                DOCK_Rotatable_Bonds:                   8
##########                         Heavy_Atoms:                  27
##########                    Molecular_Weight:             378.431
##########                DOCK_Rotatable_Bonds:                   8
##########                       Formal_Charge:          0.00999955
##########                     HBond_Acceptors:                  10
##########                        HBond_Donors:                   2
##########                         Heavy_Atoms:                  27
##########                          Grid_Score:          -30.471947
##########                     Grid_vdw_energy:          -30.069788
##########                      Grid_es_energy:           -0.402158
##########           Internal_energy_repulsive:            9.307879

@<TRIPOS>MOLECULE
ZINC001340305486
 53 55 1 0 0
SMALL
USER_CHARGES


@<TRIPOS>ATOM
      1 C1         -6.5566    2.1754   50.5383 C.3     1  ZINC001340305486    0.0900
      2 N2         -7.2110    2.0364   51.8416 N.am    1  ZINC001340305486   -0.7300
      3 C3         -7.2102    3.0676   52.7094 C.2     1  ZINC001340305486    0.5200
      4 O4         -6.6666    4.1101   52.4119 O.2     1  ZINC001340305486   -0.5100
      5 C5         -7.8849    2.9253   54.0494 C.3     1  ZINC001340305486    0.0600
      6 H6         -7.7579    3.8450   54.6204 H       1  ZINC001340305486    0.0900
      7 C7         -7.2580    1.7556   54.8166 C.3     1  ZINC001340305486    0.0900
      8 N8         -8.0523    1.5192   56.0326 N.am    1  ZINC001340305486   -0.5800
      9 C9         -7.4614    1.4275   57.2404 C.2     1  ZINC001340305486    0.5100
     10 O10        -6.2570    1.5409   57.3368 O.2     1  ZINC001340305486   -0.5200
     11 C11        -8.2893    1.1864   58.4611 C.2     1  ZINC001340305486    0.5200
     12 O12        -8.8163    2.1194   59.0307 O.2     1  ZINC001340305486   -0.5000
     13 N13        -8.4505   -0.0670   58.9292 N.am    1  ZINC001340305486   -0.6900
     14 C14        -9.2607   -0.3031   60.1268 C.3     1  ZINC001340305486    0.1200
     15 C15        -9.4059   -1.8089   60.3556 C.3     1  ZINC001340305486   -0.0400
     16 C16       -10.1380   -2.4255   59.1915 C.2     1  ZINC001340305486    0.1700
     17 N17        -9.6014   -3.0821   58.1970 N.2     1  ZINC001340305486   -0.2800
     18 N18       -10.5230   -3.4727   57.3873 N.2     1  ZINC001340305486   -0.2900
     19 C19       -11.6853   -3.0872   57.8316 C.2     1  ZINC001340305486    0.1900
     20 C20       -13.0315   -3.3527   57.2093 C.3     1  ZINC001340305486   -0.0400
     21 C21       -13.8388   -2.0514   57.1881 C.3     1  ZINC001340305486   -0.1200
     22 C22       -14.6114   -1.9078   58.4959 C.3     1  ZINC001340305486   -0.1300
     23 C23       -13.8189   -2.5107   59.6548 C.3     1  ZINC001340305486   -0.1400
     24 C24       -12.4907   -1.7659   59.8156 C.3     1  ZINC001340305486    0.1000
     25 N25       -11.4731   -2.4081   58.9829 N.pl3   1  ZINC001340305486   -0.4600
     26 C26        -9.5108    1.3852   55.8907 C.3     1  ZINC001340305486    0.0200
     27 C27       -10.0280    2.5729   55.0711 C.3     1  ZINC001340305486    0.0500
     28 O28        -9.2785    2.6707   53.8577 O.3     1  ZINC001340305486   -0.3500
     29 H29        -7.0238    2.9880   49.9820 H       1  ZINC001340305486    0.0600
     30 H30        -5.4992    2.3959   50.6842 H       1  ZINC001340305486    0.0600
     31 H31        -6.6601    1.2456   49.9788 H       1  ZINC001340305486    0.0800
     32 H32        -7.6447    1.2022   52.0800 H       1  ZINC001340305486    0.4000
     33 H33        -7.2658    0.8614   54.1933 H       1  ZINC001340305486    0.0900
     34 H34        -6.2325    2.0038   55.0905 H       1  ZINC001340305486    0.1100
     35 H35        -8.0303   -0.8128   58.4732 H       1  ZINC001340305486    0.4200
     36 H36        -8.7736    0.1503   60.9902 H       1  ZINC001340305486    0.0900
     37 H37       -10.2471    0.1406   59.9915 H       1  ZINC001340305486    0.0800
     38 H38        -8.4176   -2.2600   60.4434 H       1  ZINC001340305486    0.0900
     39 H39        -9.9683   -1.9845   61.2726 H       1  ZINC001340305486    0.1100
     40 H40       -12.8970   -3.7149   56.1901 H       1  ZINC001340305486    0.1000
     41 H41       -13.5630   -4.1019   57.7963 H       1  ZINC001340305486    0.0900
     42 H42       -13.1611   -1.2056   57.0722 H       1  ZINC001340305486    0.0600
     43 H43       -14.5393   -2.0721   56.3532 H       1  ZINC001340305486    0.0800
     44 H44       -14.7904   -0.8509   58.6939 H       1  ZINC001340305486    0.0700
     45 H45       -15.5677   -2.4235   58.4073 H       1  ZINC001340305486    0.0800
     46 H46       -14.3975   -2.4227   60.5744 H       1  ZINC001340305486    0.0900
     47 H47       -13.6220   -3.5632   59.4507 H       1  ZINC001340305486    0.0800
     48 H48       -12.6162   -0.7280   59.5072 H       1  ZINC001340305486    0.0900
     49 H49       -12.1785   -1.8003   60.8594 H       1  ZINC001340305486    0.1000
     50 H50        -9.7454    0.4536   55.3756 H       1  ZINC001340305486    0.0800
     51 H51        -9.9772    1.3880   56.8759 H       1  ZINC001340305486    0.1700
     52 H52       -11.0819    2.4223   54.8370 H       1  ZINC001340305486    0.1200
     53 H53        -9.9096    3.4912   55.6463 H       1  ZINC001340305486    0.0600
@<TRIPOS>BOND
     1     1     2    1
     2     1    29    1
     3     1    30    1
     4     1    31    1
     5     2     3   am
     6     2    32    1
     7     3     4    2
     8     3     5    1
     9     5     6    1
    10     5    28    1
    11     5     7    1
    12     7     8    1
    13     7    33    1
    14     7    34    1
    15     8     9   am
    16     8    26    1
    17     9    10    2
    18     9    11    1
    19    11    12    2
    20    11    13   am
    21    13    14    1
    22    13    35    1
    23    14    15    1
    24    14    36    1
    25    14    37    1
    26    15    16    1
    27    15    38    1
    28    15    39    1
    29    16    25    1
    30    16    17    2
    31    17    18    1
    32    18    19    2
    33    19    25    1
    34    19    20    1
    35    20    21    1
    36    20    40    1
    37    20    41    1
    38    21    22    1
    39    21    42    1
    40    21    43    1
    41    22    23    1
    42    22    44    1
    43    22    45    1
    44    23    24    1
    45    23    46    1
    46    23    47    1
    47    24    25    1
    48    24    48    1
    49    24    49    1
    50    26    27    1
    51    26    50    1
    52    26    51    1
    53    27    28    1
    54    27    52    1
    55    27    53    1
@<TRIPOS>SUBSTRUCTURE
     1 ZINC001340305486        1 TEMP              0 ****  ****    0 ROOT


##########                                Name:    ZINC000051488227
##########                DOCK_Rotatable_Bonds:                   8
##########                         Heavy_Atoms:                  30
##########                    Molecular_Weight:             403.478
##########                DOCK_Rotatable_Bonds:                   8
##########                       Formal_Charge:           0.0199996
##########                     HBond_Acceptors:                   5
##########                        HBond_Donors:                   0
##########                         Heavy_Atoms:                  30
##########                          Grid_Score:          -30.468630
##########                     Grid_vdw_energy:          -28.890497
##########                      Grid_es_energy:           -1.578132
##########           Internal_energy_repulsive:           27.186918

@<TRIPOS>MOLECULE
ZINC000051488227
 55 58 1 0 0
SMALL
USER_CHARGES


@<TRIPOS>ATOM
      1 O1        -11.2594   -3.0497   60.0366 O.2     1  ZINC000051488227   -0.5000
      2 C2        -11.4811   -1.8735   59.8713 C.2     1  ZINC000051488227    0.4800
      3 O3        -10.8811   -0.9613   60.6521 O.3     1  ZINC000051488227   -0.3400
      4 C4         -9.4317   -1.0079   60.7261 C.3     1  ZINC000051488227    0.1100
      5 C5         -8.8497    0.0914   59.8753 C.ar    1  ZINC000051488227   -0.1400
      6 C6         -8.6869   -0.1007   58.5158 C.ar    1  ZINC000051488227   -0.0500
      7 C7         -8.1535    0.9055   57.7338 C.ar    1  ZINC000051488227   -0.1500
      8 C8         -7.7816    2.1097   58.3137 C.ar    1  ZINC000051488227    0.1500
      9 O9         -7.2572    3.1013   57.5464 O.3     1  ZINC000051488227   -0.3100
     10 C10        -6.4034    2.7064   56.4707 C.3     1  ZINC000051488227    0.1100
     11 C11        -7.1632    2.7852   55.1715 C.ar    1  ZINC000051488227    0.1200
     12 C12        -6.5152    2.5060   53.9835 C.ar    1  ZINC000051488227   -0.1500
     13 C13        -7.2236    2.5809   52.7937 C.ar    1  ZINC000051488227   -0.0700
     14 C14        -8.5628    2.9353   52.8443 C.ar    1  ZINC000051488227   -0.1700
     15 C15        -9.1435    3.2005   54.0704 C.ar    1  ZINC000051488227    0.1100
     16 N16        -8.4402    3.1144   55.1824 N.ar    1  ZINC000051488227   -0.4800
     17 C17        -7.9465    2.3002   59.6779 C.ar    1  ZINC000051488227   -0.2100
     18 C18        -8.4847    1.2926   60.4547 C.ar    1  ZINC000051488227   -0.0500
     19 C19       -12.4262   -1.4304   58.7845 C.3     1  ZINC000051488227    0.0000
     20 C20       -11.6993   -1.4026   57.4647 C.ar    1  ZINC000051488227   -0.0900
     21 C21       -11.6343   -0.2297   56.7360 C.ar    1  ZINC000051488227   -0.1100
     22 C22       -10.9674   -0.2041   55.5254 C.ar    1  ZINC000051488227   -0.1200
     23 C23       -10.3651   -1.3513   55.0437 C.ar    1  ZINC000051488227   -0.1100
     24 C24       -10.4293   -2.5240   55.7729 C.ar    1  ZINC000051488227   -0.1200
     25 C25       -11.0925   -2.5485   56.9855 C.ar    1  ZINC000051488227   -0.1000
     26 C26       -13.6050   -2.4050   58.7017 C.3     1  ZINC000051488227   -0.1400
     27 C27       -14.3818   -2.3674   60.0204 C.3     1  ZINC000051488227    0.0600
     28 O28       -14.8205   -1.0315   60.2753 O.3     1  ZINC000051488227   -0.3800
     29 C29       -13.7589   -0.0843   60.4097 C.3     1  ZINC000051488227    0.0500
     30 C30       -12.9573   -0.0302   59.1065 C.3     1  ZINC000051488227   -0.1400
     31 H31        -9.1160   -0.8726   61.7605 H       1  ZINC000051488227    0.0800
     32 H32        -9.0803   -1.9735   60.3622 H       1  ZINC000051488227    0.0800
     33 H33        -8.9765   -1.0384   58.0649 H       1  ZINC000051488227    0.1300
     34 H34        -8.0259    0.7546   56.6721 H       1  ZINC000051488227    0.1400
     35 H35        -5.5411    3.3718   56.4282 H       1  ZINC000051488227    0.0900
     36 H36        -6.0651    1.6829   56.6323 H       1  ZINC000051488227    0.0900
     37 H37        -5.4702    2.2333   53.9815 H       1  ZINC000051488227    0.1400
     38 H38        -6.7432    2.3685   51.8500 H       1  ZINC000051488227    0.1400
     39 H39        -9.1450    3.0039   51.9372 H       1  ZINC000051488227    0.1400
     40 H40       -10.1863    3.4776   54.1183 H       1  ZINC000051488227    0.1600
     41 H41        -7.6574    3.2366   60.1317 H       1  ZINC000051488227    0.1300
     42 H42        -8.6136    1.4405   61.5168 H       1  ZINC000051488227    0.1300
     43 H43       -12.1049    0.6666   57.1123 H       1  ZINC000051488227    0.1300
     44 H44       -10.9173    0.7120   54.9557 H       1  ZINC000051488227    0.1300
     45 H45        -9.8447   -1.3315   54.0975 H       1  ZINC000051488227    0.1200
     46 H46        -9.9590   -3.4204   55.3964 H       1  ZINC000051488227    0.1200
     47 H47       -11.1426   -3.4647   57.5551 H       1  ZINC000051488227    0.1300
     48 H48       -14.2628   -2.1126   57.8832 H       1  ZINC000051488227    0.0900
     49 H49       -13.2318   -3.4142   58.5275 H       1  ZINC000051488227    0.0900
     50 H50       -15.2466   -3.0271   59.9519 H       1  ZINC000051488227    0.1000
     51 H51       -13.7349   -2.6988   60.8329 H       1  ZINC000051488227    0.0500
     52 H52       -14.1752    0.9006   60.6215 H       1  ZINC000051488227    0.1000
     53 H53       -13.1040   -0.3857   61.2271 H       1  ZINC000051488227    0.0700
     54 H54       -12.1207    0.6590   59.2218 H       1  ZINC000051488227    0.0900
     55 H55       -13.6019    0.3102   58.2962 H       1  ZINC000051488227    0.0900
@<TRIPOS>BOND
     1     1     2    2
     2     2     3    1
     3     2    19    1
     4     3     4    1
     5     4     5    1
     6     4    31    1
     7     4    32    1
     8     5    18   ar
     9     5     6   ar
    10     6     7   ar
    11     6    33    1
    12     7     8   ar
    13     7    34    1
    14     8     9    1
    15     8    17   ar
    16     9    10    1
    17    10    11    1
    18    10    35    1
    19    10    36    1
    20    11    16   ar
    21    11    12   ar
    22    12    13   ar
    23    12    37    1
    24    13    14   ar
    25    13    38    1
    26    14    15   ar
    27    14    39    1
    28    15    16   ar
    29    15    40    1
    30    17    18   ar
    31    17    41    1
    32    18    42    1
    33    19    30    1
    34    19    20    1
    35    19    26    1
    36    20    25   ar
    37    20    21   ar
    38    21    22   ar
    39    21    43    1
    40    22    23   ar
    41    22    44    1
    42    23    24   ar
    43    23    45    1
    44    24    25   ar
    45    24    46    1
    46    25    47    1
    47    26    27    1
    48    26    48    1
    49    26    49    1
    50    27    28    1
    51    27    50    1
    52    27    51    1
    53    28    29    1
    54    29    30    1
    55    29    52    1
    56    29    53    1
    57    30    54    1
    58    30    55    1
@<TRIPOS>SUBSTRUCTURE
     1 ZINC000051488227        1 TEMP              0 ****  ****    0 ROOT


##########                                Name:    ZINC000573650873
##########                DOCK_Rotatable_Bonds:                  10
##########                         Heavy_Atoms:                  28
##########                    Molecular_Weight:             418.843
##########                DOCK_Rotatable_Bonds:                  10
##########                       Formal_Charge:          -0.0500001
##########                     HBond_Acceptors:                   9
##########                        HBond_Donors:                   1
##########                         Heavy_Atoms:                  28
##########                          Grid_Score:          -30.465851
##########                     Grid_vdw_energy:          -29.407513
##########                      Grid_es_energy:           -1.058339
##########           Internal_energy_repulsive:           13.454982

@<TRIPOS>MOLECULE
ZINC000573650873
 50 51 1 0 0
SMALL
USER_CHARGES


@<TRIPOS>ATOM
      1 C1         -8.9088    0.7725   61.6644 C.3     1  ZINC000573650873   -0.1400
      2 C2         -9.8235    0.5920   60.4513 C.3     1  ZINC000573650873    0.0100
      3 C3        -10.5495   -0.7507   60.5552 C.3     1  ZINC000573650873   -0.1400
      4 C4        -10.8505    1.7255   60.4138 C.3     1  ZINC000573650873   -0.1500
      5 C5         -8.9978    0.6204   59.1909 C.2     1  ZINC000573650873   -0.0100
      6 C6         -9.2766    1.3051   58.0575 C.2     1  ZINC000573650873   -0.1800
      7 C7         -8.1922    0.9905   57.1920 C.2     1  ZINC000573650873   -0.0300
      8 C8         -7.9880    1.4770   55.8058 C.2     1  ZINC000573650873    0.6000
      9 O9         -7.3176    2.4698   55.6029 O.2     1  ZINC000573650873   -0.5100
     10 N10        -8.5462    0.8178   54.7711 N.am    1  ZINC000573650873   -0.5900
     11 C11        -9.3546   -0.3793   55.0157 C.3     1  ZINC000573650873    0.1200
     12 C12       -10.8376   -0.0307   54.8748 C.3     1  ZINC000573650873   -0.1000
     13 C13       -11.6509   -0.9201   55.7795 C.ar    1  ZINC000573650873   -0.0800
     14 C14       -11.3467   -2.2649   55.8817 C.ar    1  ZINC000573650873   -0.1000
     15 C15       -12.0922   -3.0813   56.7112 C.ar    1  ZINC000573650873   -0.1100
     16 C16       -13.1430   -2.5524   57.4393 C.ar    1  ZINC000573650873   -0.0400
     17 Cl17      -14.0795   -3.5770   58.4820 Cl      1  ZINC000573650873   -0.0700
     18 C18       -13.4470   -1.2066   57.3367 C.ar    1  ZINC000573650873   -0.1100
     19 C19       -12.6971   -0.3901   56.5111 C.ar    1  ZINC000573650873   -0.1000
     20 C20        -8.3444    1.2982   53.4020 C.3     1  ZINC000573650873    0.0700
     21 C21        -6.9596    0.8715   52.9106 C.3     1  ZINC000573650873    0.0600
     22 H22        -6.3023    0.7168   53.7661 H       1  ZINC000573650873    0.1400
     23 O23        -7.0713   -0.3451   52.1694 O.3     1  ZINC000573650873   -0.5200
     24 C24        -6.3783    1.9648   52.0119 C.3     1  ZINC000573650873    0.4300
     25 F25        -5.1066    1.5807   51.5732 F       1  ZINC000573650873   -0.1700
     26 F26        -7.2152    2.1541   50.9070 F       1  ZINC000573650873   -0.1700
     27 F27        -6.2816    3.1593   52.7336 F       1  ZINC000573650873   -0.1800
     28 N28        -7.4101    0.1850   57.8667 N.2     1  ZINC000573650873   -0.3400
     29 O29        -7.8419   -0.0231   58.9767 O.3     1  ZINC000573650873    0.1300
     30 H30        -8.1771   -0.0350   61.6911 H       1  ZINC000573650873    0.0600
     31 H31        -8.3916    1.7292   61.5903 H       1  ZINC000573650873    0.0600
     32 H32        -9.5060    0.7521   62.5760 H       1  ZINC000573650873    0.0700
     33 H33       -11.1466   -0.7712   61.4669 H       1  ZINC000573650873    0.0700
     34 H34       -11.2011   -0.8792   59.6910 H       1  ZINC000573650873    0.0600
     35 H35        -9.8179   -1.5582   60.5819 H       1  ZINC000573650873    0.0600
     36 H36       -10.3333    2.6822   60.3397 H       1  ZINC000573650873    0.0600
     37 H37       -11.5021    1.5970   59.5495 H       1  ZINC000573650873    0.0600
     38 H38       -11.4476    1.7051   61.3254 H       1  ZINC000573650873    0.0700
     39 H39       -10.1253    1.9421   57.8566 H       1  ZINC000573650873    0.1800
     40 H40        -9.0919   -1.1495   54.2905 H       1  ZINC000573650873    0.0900
     41 H41        -9.1621   -0.7480   56.0233 H       1  ZINC000573650873    0.1000
     42 H42       -10.9940    1.0114   55.1536 H       1  ZINC000573650873    0.0800
     43 H43       -11.1496   -0.1809   53.8412 H       1  ZINC000573650873    0.0800
     44 H44       -10.5266   -2.6777   55.3128 H       1  ZINC000573650873    0.1300
     45 H45       -11.8548   -4.1318   56.7906 H       1  ZINC000573650873    0.1300
     46 H46       -14.2673   -0.7932   57.9046 H       1  ZINC000573650873    0.1300
     47 H47       -12.9341    0.6606   56.4311 H       1  ZINC000573650873    0.1300
     48 H48        -9.1080    0.8723   52.7512 H       1  ZINC000573650873    0.1000
     49 H49        -8.4171    2.3857   53.3841 H       1  ZINC000573650873    0.1200
     50 H50        -6.2275   -0.6842   51.8405 H       1  ZINC000573650873    0.3900
@<TRIPOS>BOND
     1     1     2    1
     2     1    30    1
     3     1    31    1
     4     1    32    1
     5     2     3    1
     6     2     4    1
     7     2     5    1
     8     3    33    1
     9     3    34    1
    10     3    35    1
    11     4    36    1
    12     4    37    1
    13     4    38    1
    14     5    29    1
    15     5     6    2
    16     6     7    1
    17     6    39    1
    18     7     8    1
    19     7    28    2
    20     8     9    2
    21     8    10   am
    22    10    11    1
    23    10    20    1
    24    11    12    1
    25    11    40    1
    26    11    41    1
    27    12    13    1
    28    12    42    1
    29    12    43    1
    30    13    19   ar
    31    13    14   ar
    32    14    15   ar
    33    14    44    1
    34    15    16   ar
    35    15    45    1
    36    16    17    1
    37    16    18   ar
    38    18    19   ar
    39    18    46    1
    40    19    47    1
    41    20    21    1
    42    20    48    1
    43    20    49    1
    44    21    22    1
    45    21    23    1
    46    21    24    1
    47    23    50    1
    48    24    25    1
    49    24    26    1
    50    24    27    1
    51    28    29    1
@<TRIPOS>SUBSTRUCTURE
     1 ZINC000573650873        1 TEMP              0 ****  ****    0 ROOT


##########                                Name:    ZINC001401207732
##########                DOCK_Rotatable_Bonds:                   8
##########                         Heavy_Atoms:                  23
##########                    Molecular_Weight:             337.446
##########                DOCK_Rotatable_Bonds:                   8
##########                       Formal_Charge:          -0.0199995
##########                     HBond_Acceptors:                   8
##########                        HBond_Donors:                   1
##########                         Heavy_Atoms:                  23
##########                          Grid_Score:          -30.455408
##########                     Grid_vdw_energy:          -31.352802
##########                      Grid_es_energy:            0.897395
##########           Internal_energy_repulsive:           13.641747

@<TRIPOS>MOLECULE
ZINC001401207732
 46 47 1 0 0
SMALL
USER_CHARGES


@<TRIPOS>ATOM
      1 C1         -8.0758    2.4878   59.0431 C.3     1  ZINC001401207732   -0.0900
      2 C2         -8.5310    1.8126   60.3112 C.2     1  ZINC001401207732    0.1500
      3 C3         -8.8744    0.5013   60.3655 C.2     1  ZINC001401207732   -0.3000
      4 C4         -8.8620   -0.4432   59.2433 C.2     1  ZINC001401207732    0.6100
      5 O5         -7.8260   -0.6621   58.6438 O.2     1  ZINC001401207732   -0.5200
      6 N6         -9.9980   -1.0686   58.8763 N.am    1  ZINC001401207732   -0.5900
      7 C7        -11.2453   -0.8050   59.5981 C.3     1  ZINC001401207732    0.0700
      8 C8         -9.9856   -2.0120   57.7556 C.3     1  ZINC001401207732    0.1400
      9 H9         -8.9595   -2.3137   57.5460 H       1  ZINC001401207732    0.1100
     10 C10       -10.8160   -3.2450   58.1176 C.3     1  ZINC001401207732   -0.1600
     11 C11       -10.5828   -1.3406   56.5171 C.3     1  ZINC001401207732    0.0500
     12 N12        -9.7910   -1.7029   55.3341 N.3     1  ZINC001401207732   -0.6800
     13 C13       -10.2365   -0.9523   54.1524 C.3     1  ZINC001401207732    0.1500
     14 C14        -9.0349   -0.4641   53.3850 C.2     1  ZINC001401207732    0.1800
     15 N15        -8.4000    0.6688   53.5664 N.2     1  ZINC001401207732   -0.4800
     16 C16        -7.4040    0.6742   52.6626 C.2     1  ZINC001401207732    0.1800
     17 C17        -6.3844    1.7663   52.4656 C.3     1  ZINC001401207732   -0.0100
     18 C18        -6.5897    2.4145   51.0950 C.3     1  ZINC001401207732   -0.1500
     19 C19        -6.5509    2.8230   53.5595 C.3     1  ZINC001401207732   -0.1500
     20 N20        -7.4825   -0.4350   51.9902 N.2     1  ZINC001401207732   -0.3800
     21 O21        -8.4093   -1.1056   52.3935 O.3     1  ZINC001401207732    0.0900
     22 S22        -9.3455    0.1380   62.0242 S.3     1  ZINC001401207732    0.1800
     23 C23        -9.0302    1.7557   62.4780 C.2     1  ZINC001401207732    0.0100
     24 N24        -8.6284    2.4408   61.4559 N.2     1  ZINC001401207732   -0.4800
     25 H25        -8.9396    2.8966   58.5188 H       1  ZINC001401207732    0.0800
     26 H26        -7.3848    3.2942   59.2887 H       1  ZINC001401207732    0.0800
     27 H27        -7.5737    1.7610   58.4045 H       1  ZINC001401207732    0.1000
     28 H28       -11.2915   -1.4356   60.4861 H       1  ZINC001401207732    0.0600
     29 H29       -11.2790    0.2433   59.8948 H       1  ZINC001401207732    0.0800
     30 H30       -12.0936   -1.0269   58.9507 H       1  ZINC001401207732    0.0900
     31 H31       -10.8067   -3.9469   57.2837 H       1  ZINC001401207732    0.0700
     32 H32       -10.3905   -3.7233   58.9998 H       1  ZINC001401207732    0.0700
     33 H33       -11.8422   -2.9433   58.3271 H       1  ZINC001401207732    0.0600
     34 H34       -10.5671   -0.2585   56.6474 H       1  ZINC001401207732    0.0800
     35 H35       -11.6112   -1.6755   56.3826 H       1  ZINC001401207732    0.0500
     36 H36        -9.8269   -2.6971   55.1656 H       1  ZINC001401207732    0.3600
     37 H37       -10.8366   -0.0992   54.4690 H       1  ZINC001401207732    0.1100
     38 H38       -10.8360   -1.6015   53.5143 H       1  ZINC001401207732    0.0800
     39 H39        -5.3819    1.3417   52.5201 H       1  ZINC001401207732    0.1000
     40 H40        -5.8522    3.2044   50.9524 H       1  ZINC001401207732    0.0700
     41 H41        -6.4711    1.6618   50.3156 H       1  ZINC001401207732    0.0600
     42 H42        -7.5920    2.8393   51.0404 H       1  ZINC001401207732    0.0600
     43 H43        -6.4046    2.3612   54.5359 H       1  ZINC001401207732    0.0600
     44 H44        -5.8134    3.6128   53.4170 H       1  ZINC001401207732    0.0700
     45 H45        -7.5532    3.2476   53.5049 H       1  ZINC001401207732    0.0600
     46 H46        -9.1534    2.1514   63.4753 H       1  ZINC001401207732    0.2000
@<TRIPOS>BOND
     1     1     2    1
     2     1    25    1
     3     1    26    1
     4     1    27    1
     5     2    24    1
     6     2     3    2
     7     3     4    1
     8     3    22    1
     9     4     5    2
    10     4     6   am
    11     6     7    1
    12     6     8    1
    13     7    28    1
    14     7    29    1
    15     7    30    1
    16     8     9    1
    17     8    10    1
    18     8    11    1
    19    10    31    1
    20    10    32    1
    21    10    33    1
    22    11    12    1
    23    11    34    1
    24    11    35    1
    25    12    13    1
    26    12    36    1
    27    13    14    1
    28    13    37    1
    29    13    38    1
    30    14    21    1
    31    14    15    2
    32    15    16    1
    33    16    17    1
    34    16    20    2
    35    17    18    1
    36    17    19    1
    37    17    39    1
    38    18    40    1
    39    18    41    1
    40    18    42    1
    41    19    43    1
    42    19    44    1
    43    19    45    1
    44    20    21    1
    45    22    23    1
    46    23    24    2
    47    23    46    1
@<TRIPOS>SUBSTRUCTURE
     1 ZINC001401207732        1 TEMP              0 ****  ****    0 ROOT


##########                                Name:    ZINC000451019064
##########                DOCK_Rotatable_Bonds:                   8
##########                         Heavy_Atoms:                  23
##########                    Molecular_Weight:             346.534
##########                DOCK_Rotatable_Bonds:                   8
##########                       Formal_Charge:          -0.0200008
##########                     HBond_Acceptors:                   6
##########                        HBond_Donors:                   1
##########                         Heavy_Atoms:                  23
##########                          Grid_Score:          -30.452293
##########                     Grid_vdw_energy:          -31.524958
##########                      Grid_es_energy:            1.072665
##########           Internal_energy_repulsive:            8.726424

@<TRIPOS>MOLECULE
ZINC000451019064
 57 58 1 0 0
SMALL
USER_CHARGES


@<TRIPOS>ATOM
      1 C1         -6.6491    1.9846   51.5263 C.3     1  ZINC000451019064   -0.1500
      2 C2         -7.6483    1.9902   52.6851 C.3     1  ZINC000451019064    0.0900
      3 H3         -8.1247    2.9684   52.7501 H       1  ZINC000451019064    0.0700
      4 C4         -6.9138    1.6912   53.9947 C.3     1  ZINC000451019064    0.0200
      5 N5         -7.8890    1.6217   55.0926 N.3     1  ZINC000451019064   -0.5400
      6 C6         -7.2180    1.3922   56.3790 C.3     1  ZINC000451019064    0.0600
      7 C7         -7.8791    2.2505   57.4594 C.3     1  ZINC000451019064   -0.1300
      8 C8         -7.8300    1.5121   58.7985 C.3     1  ZINC000451019064    0.1100
      9 N9         -8.9484    0.5692   58.8774 N.am    1  ZINC000451019064   -1.1200
     10 S10        -8.7909   -0.8312   59.7473 S.o2    1  ZINC000451019064    2.6100
     11 O11        -7.7731   -1.5533   59.0679 O.2     1  ZINC000451019064   -0.9600
     12 O12        -8.6088   -0.3931   61.0868 O.2     1  ZINC000451019064   -0.9500
     13 C13       -10.3929   -1.6619   59.5616 C.3     1  ZINC000451019064   -0.6300
     14 C14       -11.5047   -0.7477   60.0803 C.3     1  ZINC000451019064   -0.1100
     15 C15       -12.8557   -1.4484   59.9237 C.3     1  ZINC000451019064   -0.0800
     16 C16       -13.9675   -0.5342   60.4424 C.3     1  ZINC000451019064   -0.1200
     17 C17       -15.3186   -1.2348   60.2858 C.3     1  ZINC000451019064   -0.1200
     18 C18       -15.5630   -1.5470   58.8081 C.3     1  ZINC000451019064   -0.1200
     19 C19       -14.4512   -2.4612   58.2893 C.3     1  ZINC000451019064   -0.1200
     20 C20       -13.1000   -1.7605   58.4460 C.3     1  ZINC000451019064   -0.1200
     21 C21        -8.8953    0.5824   54.8305 C.3     1  ZINC000451019064    0.0200
     22 C22        -9.6099    0.8925   53.5124 C.3     1  ZINC000451019064    0.0900
     23 H23       -10.1440    1.8384   53.6017 H       1  ZINC000451019064    0.0700
     24 C24       -10.6031   -0.2269   53.1940 C.3     1  ZINC000451019064   -0.1500
     25 O25        -8.6438    0.9880   52.4622 O.3     1  ZINC000451019064   -0.3800
     26 H26        -7.1728    2.1959   50.5940 H       1  ZINC000451019064    0.0700
     27 H27        -5.8898    2.7475   51.6976 H       1  ZINC000451019064    0.0700
     28 H28        -6.1730    1.0062   51.4618 H       1  ZINC000451019064    0.0600
     29 H29        -6.3923    0.7378   53.9101 H       1  ZINC000451019064    0.0400
     30 H30        -6.1936    2.4840   54.1973 H       1  ZINC000451019064    0.0900
     31 H31        -7.3015    0.3396   56.6497 H       1  ZINC000451019064    0.0400
     32 H32        -6.1657    1.6629   56.2934 H       1  ZINC000451019064    0.0800
     33 H33        -7.3470    3.1977   57.5470 H       1  ZINC000451019064    0.0800
     34 H34        -8.9174    2.4408   57.1873 H       1  ZINC000451019064    0.0800
     35 H35        -6.8892    0.9675   58.8787 H       1  ZINC000451019064    0.0800
     36 H36        -7.9036    2.2322   59.6133 H       1  ZINC000451019064    0.0700
     37 H37        -9.7812    0.7650   58.4202 H       1  ZINC000451019064    0.4200
     38 H38       -10.5669   -1.8843   58.5088 H       1  ZINC000451019064    0.1300
     39 H39       -10.3893   -2.5900   60.1332 H       1  ZINC000451019064    0.1400
     40 H40       -11.3306   -0.5253   61.1331 H       1  ZINC000451019064    0.0800
     41 H41       -11.5082    0.1804   59.5087 H       1  ZINC000451019064    0.0800
     42 H42       -12.8522   -2.3764   60.4953 H       1  ZINC000451019064    0.0800
     43 H43       -13.7934   -0.3118   61.4952 H       1  ZINC000451019064    0.0600
     44 H44       -13.9710    0.3939   59.8708 H       1  ZINC000451019064    0.0700
     45 H45       -15.3150   -2.1629   60.8574 H       1  ZINC000451019064    0.0600
     46 H46       -16.1106   -0.5835   60.6554 H       1  ZINC000451019064    0.0600
     47 H47       -16.5255   -2.0461   58.6964 H       1  ZINC000451019064    0.0600
     48 H48       -15.5665   -0.6189   58.2365 H       1  ZINC000451019064    0.0600
     49 H49       -14.4476   -3.3893   58.8609 H       1  ZINC000451019064    0.0600
     50 H50       -14.6252   -2.6836   57.2365 H       1  ZINC000451019064    0.0600
     51 H51       -13.1036   -0.8325   57.8743 H       1  ZINC000451019064    0.0700
     52 H52       -12.3080   -2.4119   58.0763 H       1  ZINC000451019064    0.0600
     53 H53        -8.4055   -0.3887   54.7591 H       1  ZINC000451019064    0.0400
     54 H54        -9.6216    0.5658   55.6430 H       1  ZINC000451019064    0.0900
     55 H55       -11.3371   -0.3004   53.9964 H       1  ZINC000451019064    0.0700
     56 H56       -11.1114   -0.0056   52.2556 H       1  ZINC000451019064    0.0700
     57 H57       -10.0681   -1.1723   53.1033 H       1  ZINC000451019064    0.0600
@<TRIPOS>BOND
     1     1     2    1
     2     1    26    1
     3     1    27    1
     4     1    28    1
     5     2     3    1
     6     2    25    1
     7     2     4    1
     8     4     5    1
     9     4    29    1
    10     4    30    1
    11     5     6    1
    12     5    21    1
    13     6     7    1
    14     6    31    1
    15     6    32    1
    16     7     8    1
    17     7    33    1
    18     7    34    1
    19     8     9    1
    20     8    35    1
    21     8    36    1
    22     9    10   am
    23     9    37    1
    24    10    11    2
    25    10    12    2
    26    10    13    1
    27    13    14    1
    28    13    38    1
    29    13    39    1
    30    14    15    1
    31    14    40    1
    32    14    41    1
    33    15    20    1
    34    15    16    1
    35    15    42    1
    36    16    17    1
    37    16    43    1
    38    16    44    1
    39    17    18    1
    40    17    45    1
    41    17    46    1
    42    18    19    1
    43    18    47    1
    44    18    48    1
    45    19    20    1
    46    19    49    1
    47    19    50    1
    48    20    51    1
    49    20    52    1
    50    21    22    1
    51    21    53    1
    52    21    54    1
    53    22    23    1
    54    22    24    1
    55    22    25    1
    56    24    55    1
    57    24    56    1
    58    24    57    1
@<TRIPOS>SUBSTRUCTURE
     1 ZINC000451019064        1 TEMP              0 ****  ****    0 ROOT


##########                                Name:    ZINC000443933644
##########                DOCK_Rotatable_Bonds:                   8
##########                         Heavy_Atoms:                  27
##########                    Molecular_Weight:             402.438
##########                DOCK_Rotatable_Bonds:                   8
##########                       Formal_Charge:          0.00999922
##########                     HBond_Acceptors:                   9
##########                        HBond_Donors:                   2
##########                         Heavy_Atoms:                  27
##########                          Grid_Score:          -30.413309
##########                     Grid_vdw_energy:          -30.160660
##########                      Grid_es_energy:           -0.252650
##########           Internal_energy_repulsive:           30.378889

@<TRIPOS>MOLECULE
ZINC000443933644
 48 49 1 0 0
SMALL
USER_CHARGES


@<TRIPOS>ATOM
      1 C1        -14.7728   -2.1362   60.7446 C.3     1  ZINC000443933644   -0.1500
      2 C2        -13.4842   -1.9139   59.9502 C.3     1  ZINC000443933644   -0.1400
      3 C3        -13.8292   -1.6396   58.4851 C.3     1  ZINC000443933644   -0.1000
      4 H4        -14.6291   -0.9010   58.4323 H       1  ZINC000443933644    0.1000
      5 C5        -14.2885   -2.9375   57.8178 C.3     1  ZINC000443933644   -0.1700
      6 C6        -12.5921   -1.1041   57.7615 C.3     1  ZINC000443933644    0.1200
      7 H7        -12.6720   -1.3206   56.6962 H       1  ZINC000443933644    0.1300
      8 N8        -11.3928   -1.7488   58.3022 N.am    1  ZINC000443933644   -1.1100
      9 S9        -10.3429   -2.5291   57.2867 S.o2    1  ZINC000443933644    2.6900
     10 O10        -9.2252   -2.9075   58.0786 O.2     1  ZINC000443933644   -0.9400
     11 O11       -11.1194   -3.4586   56.5437 O.2     1  ZINC000443933644   -0.9400
     12 C12        -9.7527   -1.3374   56.1307 C.ar    1  ZINC000443933644   -0.7000
     13 C13        -8.9837   -0.2483   56.5744 C.ar    1  ZINC000443933644    0.0500
     14 C14        -8.6697   -0.0848   57.9349 C.ar    1  ZINC000443933644   -0.1400
     15 C15        -7.9223    0.9817   58.3302 C.ar    1  ZINC000443933644   -0.0800
     16 C16        -7.4619    1.9170   57.4055 C.ar    1  ZINC000443933644   -0.1200
     17 C17        -7.7471    1.7907   56.0802 C.ar    1  ZINC000443933644   -0.0900
     18 C18        -8.5151    0.7032   55.6352 C.ar    1  ZINC000443933644   -0.0900
     19 C19        -8.8305    0.5395   54.2697 C.ar    1  ZINC000443933644    0.2300
     20 N20        -8.3796    1.4651   53.3268 N.am    1  ZINC000443933644   -0.6700
     21 C21        -7.4705    1.0972   52.4023 C.2     1  ZINC000443933644    0.5100
     22 C22        -6.9839    2.0963   51.3846 C.3     1  ZINC000443933644   -0.1700
     23 O23        -7.0441   -0.0382   52.3896 O.2     1  ZINC000443933644   -0.5100
     24 C24        -9.5873   -0.5426   53.8750 C.ar    1  ZINC000443933644   -0.1600
     25 C25       -10.0366   -1.4742   54.8060 C.ar    1  ZINC000443933644    0.0400
     26 C26       -12.4950    0.4088   57.9686 C.3     1  ZINC000443933644    0.4300
     27 F27       -12.0124    0.6734   59.2548 F       1  ZINC000443933644   -0.1700
     28 F28       -11.6218    0.9541   57.0214 F       1  ZINC000443933644   -0.1600
     29 F29       -13.7624    0.9821   57.8190 F       1  ZINC000443933644   -0.1700
     30 H30       -15.3982   -1.2460   60.6791 H       1  ZINC000443933644    0.0500
     31 H31       -15.3111   -2.9896   60.3322 H       1  ZINC000443933644    0.0600
     32 H32       -14.5270   -2.3317   61.7884 H       1  ZINC000443933644    0.0600
     33 H33       -12.9459   -1.0605   60.3627 H       1  ZINC000443933644    0.0700
     34 H34       -12.8587   -2.8041   60.0157 H       1  ZINC000443933644    0.0900
     35 H35       -15.2340   -3.2567   58.2562 H       1  ZINC000443933644    0.0700
     36 H36       -14.4220   -2.7691   56.7491 H       1  ZINC000443933644    0.0600
     37 H37       -13.5367   -3.7113   57.9724 H       1  ZINC000443933644    0.0700
     38 H38       -11.2137   -1.7187   59.2551 H       1  ZINC000443933644    0.4300
     39 H39        -9.0201   -0.8017   58.6628 H       1  ZINC000443933644    0.1400
     40 H40        -7.6827    1.1051   59.3761 H       1  ZINC000443933644    0.1300
     41 H41        -6.8705    2.7544   57.7451 H       1  ZINC000443933644    0.1300
     42 H42        -7.3842    2.5236   55.3748 H       1  ZINC000443933644    0.1300
     43 H43        -8.7206    2.3732   53.3372 H       1  ZINC000443933644    0.4200
     44 H44        -7.4753    3.0546   51.5525 H       1  ZINC000443933644    0.0800
     45 H45        -5.9052    2.2189   51.4828 H       1  ZINC000443933644    0.1000
     46 H46        -7.2190    1.7380   50.3824 H       1  ZINC000443933644    0.1000
     47 H47        -9.8308   -0.6713   52.8307 H       1  ZINC000443933644    0.1500
     48 H48       -10.6284   -2.3143   54.4737 H       1  ZINC000443933644    0.1500
@<TRIPOS>BOND
     1     1     2    1
     2     1    30    1
     3     1    31    1
     4     1    32    1
     5     2     3    1
     6     2    33    1
     7     2    34    1
     8     3     4    1
     9     3     5    1
    10     3     6    1
    11     5    35    1
    12     5    36    1
    13     5    37    1
    14     6     7    1
    15     6     8    1
    16     6    26    1
    17     8     9   am
    18     8    38    1
    19     9    10    2
    20     9    11    2
    21     9    12    1
    22    12    25   ar
    23    12    13   ar
    24    13    18   ar
    25    13    14   ar
    26    14    15   ar
    27    14    39    1
    28    15    16   ar
    29    15    40    1
    30    16    17   ar
    31    16    41    1
    32    17    18   ar
    33    17    42    1
    34    18    19   ar
    35    19    20    1
    36    19    24   ar
    37    20    21   am
    38    20    43    1
    39    21    22    1
    40    21    23    2
    41    22    44    1
    42    22    45    1
    43    22    46    1
    44    24    25   ar
    45    24    47    1
    46    25    48    1
    47    26    27    1
    48    26    28    1
    49    26    29    1
@<TRIPOS>SUBSTRUCTURE
     1 ZINC000443933644        1 TEMP              0 ****  ****    0 ROOT


##########                                Name:    ZINC001369071670
##########                DOCK_Rotatable_Bonds:                   8
##########                         Heavy_Atoms:                  24
##########                    Molecular_Weight:             335.366
##########                DOCK_Rotatable_Bonds:                   8
##########                       Formal_Charge:        -2.90573e-07
##########                     HBond_Acceptors:                  10
##########                        HBond_Donors:                   1
##########                         Heavy_Atoms:                  24
##########                          Grid_Score:          -30.406515
##########                     Grid_vdw_energy:          -29.113327
##########                      Grid_es_energy:           -1.293188
##########           Internal_energy_repulsive:            9.108214

@<TRIPOS>MOLECULE
ZINC001369071670
 45 47 1 0 0
SMALL
USER_CHARGES


@<TRIPOS>ATOM
      1 C1        -15.0403   -3.1281   59.5726 C.3     1  ZINC001369071670   -0.0800
      2 C2        -13.9891   -2.1233   59.9684 C.2     1  ZINC001369071670    0.0000
      3 C3        -12.6481   -2.2855   59.8973 C.2     1  ZINC001369071670   -0.2300
      4 C4        -12.1283   -1.0580   60.3845 C.2     1  ZINC001369071670    0.2100
      5 O5        -10.8200   -0.7209   60.5123 O.3     1  ZINC001369071670   -0.2600
      6 C6         -9.8570   -1.6785   60.0678 C.3     1  ZINC001369071670    0.0400
      7 C7         -9.8920   -1.7653   58.5637 C.2     1  ZINC001369071670    0.5200
      8 O8         -9.7237   -2.8331   58.0138 O.2     1  ZINC001369071670   -0.5100
      9 N9        -10.1104   -0.6563   57.8297 N.am    1  ZINC001369071670   -0.7200
     10 C10       -10.1461   -0.7409   56.3675 C.3     1  ZINC001369071670    0.1500
     11 H11        -9.4355   -1.4953   56.0297 H       1  ZINC001369071670    0.0900
     12 C12       -11.5550   -1.1278   55.9133 C.3     1  ZINC001369071670   -0.1700
     13 C13        -9.7719    0.6164   55.7687 C.3     1  ZINC001369071670   -0.1200
     14 C14        -8.2686    0.9370   55.8516 C.3     1  ZINC001369071670    0.0100
     15 N15        -8.4039    1.4545   54.4720 N.3     1  ZINC001369071670   -0.4800
     16 C16        -7.2698    1.0340   53.6384 C.3     1  ZINC001369071670    0.1000
     17 C17        -7.2258    1.8752   52.3888 C.2     1  ZINC001369071670    0.1900
     18 N18        -8.2295    2.5156   51.8409 N.2     1  ZINC001369071670   -0.3000
     19 N19        -7.7911    3.1174   50.7894 N.2     1  ZINC001369071670   -0.0700
     20 N20        -6.5338    2.8775   50.6524 N.2     1  ZINC001369071670   -0.0900
     21 N21        -6.1469    2.1194   51.6220 N.pl3   1  ZINC001369071670   -0.3000
     22 C22        -4.7903    1.6118   51.8418 C.3     1  ZINC001369071670    0.0800
     23 C23        -9.5813    0.5886   54.2415 C.3     1  ZINC001369071670    0.0200
     24 N24       -13.1615   -0.3174   60.6848 N.2     1  ZINC001369071670   -0.4100
     25 O25       -14.2004   -0.8917   60.4544 O.3     1  ZINC001369071670    0.1000
     26 H26       -16.0301   -2.7038   59.7410 H       1  ZINC001369071670    0.0900
     27 H27       -14.9263   -3.3767   58.5174 H       1  ZINC001369071670    0.1000
     28 H28       -14.9247   -4.0304   60.1730 H       1  ZINC001369071670    0.1000
     29 H29       -12.0999   -3.1489   59.5503 H       1  ZINC001369071670    0.1800
     30 H30        -8.8625   -1.3706   60.3909 H       1  ZINC001369071670    0.1000
     31 H31       -10.0915   -2.6542   60.4935 H       1  ZINC001369071670    0.1000
     32 H32       -10.2438    0.1979   58.2694 H       1  ZINC001369071670    0.4000
     33 H33       -11.8214   -2.0948   56.3399 H       1  ZINC001369071670    0.0600
     34 H34       -12.2656   -0.3735   56.2511 H       1  ZINC001369071670    0.0600
     35 H35       -11.5816   -1.1907   54.8255 H       1  ZINC001369071670    0.0700
     36 H36       -10.4145    1.4255   56.1160 H       1  ZINC001369071670    0.1100
     37 H37        -8.0229    1.7039   56.5862 H       1  ZINC001369071670    0.1000
     38 H38        -7.6348    0.0536   55.9290 H       1  ZINC001369071670    0.0800
     39 H39        -6.3419    1.1624   54.1957 H       1  ZINC001369071670    0.1000
     40 H40        -7.3881   -0.0149   53.3664 H       1  ZINC001369071670    0.0900
     41 H41        -4.2337    2.3177   52.4584 H       1  ZINC001369071670    0.1000
     42 H42        -4.8405    0.6480   52.3484 H       1  ZINC001369071670    0.1000
     43 H43        -4.2872    1.4923   50.8823 H       1  ZINC001369071670    0.1100
     44 H44        -9.3315   -0.3967   53.8481 H       1  ZINC001369071670    0.0800
     45 H45       -10.3844    1.0770   53.6897 H       1  ZINC001369071670    0.1000
@<TRIPOS>BOND
     1     1     2    1
     2     1    26    1
     3     1    27    1
     4     1    28    1
     5     2    25    1
     6     2     3    2
     7     3     4    1
     8     3    29    1
     9     4     5    1
    10     4    24    2
    11     5     6    1
    12     6     7    1
    13     6    30    1
    14     6    31    1
    15     7     8    2
    16     7     9   am
    17     9    10    1
    18     9    32    1
    19    10    11    1
    20    10    12    1
    21    10    13    1
    22    12    33    1
    23    12    34    1
    24    12    35    1
    25    13    23    1
    26    13    14    1
    27    13    36    1
    28    14    15    1
    29    14    37    1
    30    14    38    1
    31    15    16    1
    32    15    23    1
    33    16    17    1
    34    16    39    1
    35    16    40    1
    36    17    21    1
    37    17    18    2
    38    18    19    1
    39    19    20    2
    40    20    21    1
    41    21    22    1
    42    22    41    1
    43    22    42    1
    44    22    43    1
    45    23    44    1
    46    23    45    1
    47    24    25    1
@<TRIPOS>SUBSTRUCTURE
     1 ZINC001369071670        1 TEMP              0 ****  ****    0 ROOT


##########                                Name:    ZINC000859202493
##########                DOCK_Rotatable_Bonds:                  11
##########                         Heavy_Atoms:                  25
##########                    Molecular_Weight:             382.404
##########                DOCK_Rotatable_Bonds:                  11
##########                       Formal_Charge:          -0.0200009
##########                     HBond_Acceptors:                  10
##########                        HBond_Donors:                   3
##########                         Heavy_Atoms:                  25
##########                          Grid_Score:          -30.402231
##########                     Grid_vdw_energy:          -26.982109
##########                      Grid_es_energy:           -3.420123
##########           Internal_energy_repulsive:           12.503672

@<TRIPOS>MOLECULE
ZINC000859202493
 46 46 1 0 0
SMALL
USER_CHARGES


@<TRIPOS>ATOM
      1 C1        -12.8855   -4.1872   56.8051 C.3     1  ZINC000859202493   -0.1500
      2 C2        -14.1731   -3.8763   57.5708 C.3     1  ZINC000859202493   -0.1200
      3 C3        -13.8620   -2.9219   58.7255 C.3     1  ZINC000859202493   -0.1000
      4 H4        -12.9178   -3.2079   59.1888 H       1  ZINC000859202493    0.0700
      5 C5        -14.9829   -2.9957   59.7642 C.3     1  ZINC000859202493   -0.1600
      6 C6        -13.7554   -1.4923   58.1909 C.3     1  ZINC000859202493   -0.1200
      7 C7        -12.4635   -0.8516   58.7024 C.3     1  ZINC000859202493    0.1600
      8 H8        -12.4585   -0.8642   59.7923 H       1  ZINC000859202493    0.1000
      9 C9        -12.3812    0.5943   58.2088 C.3     1  ZINC000859202493    0.0500
     10 O10       -11.6890    0.6323   56.9592 O.3     1  ZINC000859202493   -0.5700
     11 N11       -11.3124   -1.6054   58.1998 N.am    1  ZINC000859202493   -1.1000
     12 S12       -10.0546   -1.9697   59.2137 S.o2    1  ZINC000859202493    2.6900
     13 O13       -10.6241   -2.6183   60.3425 O.2     1  ZINC000859202493   -0.9500
     14 O14        -9.0456   -2.5594   58.4055 O.2     1  ZINC000859202493   -0.9500
     15 C15        -9.3959   -0.4430   59.7970 C.ar    1  ZINC000859202493   -0.6600
     16 C16        -8.9155    0.4904   58.8972 C.ar    1  ZINC000859202493   -0.0300
     17 C17        -8.3972    1.6896   59.3510 C.ar    1  ZINC000859202493   -0.1100
     18 C18        -8.3586    1.9586   60.7050 C.ar    1  ZINC000859202493   -0.0600
     19 C19        -8.8408    1.0232   61.6114 C.ar    1  ZINC000859202493    0.1200
     20 N20        -8.8035    1.2928   62.9839 N.am    1  ZINC000859202493   -0.6500
     21 C21        -9.9427    1.5747   63.6465 C.2     1  ZINC000859202493    0.4800
     22 O22       -11.0003    1.5946   63.0532 O.2     1  ZINC000859202493   -0.4500
     23 C23        -9.9024    1.8651   65.1247 C.3     1  ZINC000859202493    0.4600
     24 F24        -9.3811    0.7584   65.8034 F       1  ZINC000859202493   -0.1500
     25 F25        -9.0909    2.9804   65.3589 F       1  ZINC000859202493   -0.1600
     26 F26       -11.1977    2.1262   65.5841 F       1  ZINC000859202493   -0.1600
     27 C27        -9.3653   -0.1777   61.1523 C.ar    1  ZINC000859202493   -0.0300
     28 H28       -13.1072   -4.8671   55.9825 H       1  ZINC000859202493    0.0500
     29 H29       -12.4660   -3.2624   56.4090 H       1  ZINC000859202493    0.0500
     30 H30       -12.1662   -4.6536   57.4781 H       1  ZINC000859202493    0.0600
     31 H31       -14.8925   -3.4098   56.8976 H       1  ZINC000859202493    0.0600
     32 H32       -14.5927   -4.8010   57.9667 H       1  ZINC000859202493    0.0600
     33 H33       -14.7613   -2.3157   60.5868 H       1  ZINC000859202493    0.0500
     34 H34       -15.9271   -2.7097   59.3007 H       1  ZINC000859202493    0.0600
     35 H35       -15.0589   -4.0141   60.1450 H       1  ZINC000859202493    0.0600
     36 H36       -13.7446   -1.5117   57.1011 H       1  ZINC000859202493    0.0800
     37 H37       -14.6105   -0.9108   58.5355 H       1  ZINC000859202493    0.0800
     38 H38       -13.3877    0.9918   58.0788 H       1  ZINC000859202493    0.0600
     39 H39       -11.8438    1.1978   58.9402 H       1  ZINC000859202493    0.0600
     40 H40       -11.6288    1.5153   56.5696 H       1  ZINC000859202493    0.3800
     41 H41       -11.2868   -1.8913   57.2733 H       1  ZINC000859202493    0.4200
     42 H42        -8.9446    0.2824   57.8379 H       1  ZINC000859202493    0.1500
     43 H43        -8.0220    2.4165   58.6457 H       1  ZINC000859202493    0.1400
     44 H44        -7.9534    2.8951   61.0587 H       1  ZINC000859202493    0.1400
     45 H45        -7.9576    1.2768   63.4585 H       1  ZINC000859202493    0.4200
     46 H46        -9.7410   -0.9071   61.8545 H       1  ZINC000859202493    0.1500
@<TRIPOS>BOND
     1     1     2    1
     2     1    28    1
     3     1    29    1
     4     1    30    1
     5     2     3    1
     6     2    31    1
     7     2    32    1
     8     3     4    1
     9     3     5    1
    10     3     6    1
    11     5    33    1
    12     5    34    1
    13     5    35    1
    14     6     7    1
    15     6    36    1
    16     6    37    1
    17     7     8    1
    18     7     9    1
    19     7    11    1
    20     9    10    1
    21     9    38    1
    22     9    39    1
    23    10    40    1
    24    11    12   am
    25    11    41    1
    26    12    13    2
    27    12    14    2
    28    12    15    1
    29    15    27   ar
    30    15    16   ar
    31    16    17   ar
    32    16    42    1
    33    17    18   ar
    34    17    43    1
    35    18    19   ar
    36    18    44    1
    37    19    20    1
    38    19    27   ar
    39    20    21   am
    40    20    45    1
    41    21    22    2
    42    21    23    1
    43    23    24    1
    44    23    25    1
    45    23    26    1
    46    27    46    1
@<TRIPOS>SUBSTRUCTURE
     1 ZINC000859202493        1 TEMP              0 ****  ****    0 ROOT


##########                                Name:    ZINC000432253027
##########                DOCK_Rotatable_Bonds:                   8
##########                         Heavy_Atoms:                  26
##########                    Molecular_Weight:             401.436
##########                DOCK_Rotatable_Bonds:                   8
##########                       Formal_Charge:         1.19209e-07
##########                     HBond_Acceptors:                  11
##########                        HBond_Donors:                   0
##########                         Heavy_Atoms:                  26
##########                          Grid_Score:          -30.385250
##########                     Grid_vdw_energy:          -28.146473
##########                      Grid_es_energy:           -2.238776
##########           Internal_energy_repulsive:            7.806798

@<TRIPOS>MOLECULE
ZINC000432253027
 40 42 1 0 0
SMALL
USER_CHARGES


@<TRIPOS>ATOM
      1 C1        -11.5429    0.5588   55.4203 C.3     1  ZINC000432253027    0.0300
      2 O2        -10.2858   -0.0627   55.6954 O.3     1  ZINC000432253027   -0.3100
      3 C3         -9.2237    0.3375   54.9495 C.ar    1  ZINC000432253027    0.1500
      4 C4         -9.2475    0.1929   53.5721 C.ar    1  ZINC000432253027   -0.2100
      5 C5         -8.1657    0.6002   52.8138 C.ar    1  ZINC000432253027   -0.0600
      6 C6         -7.0538    1.1545   53.4232 C.ar    1  ZINC000432253027   -0.1600
      7 C7         -7.0148    1.3053   54.7942 C.ar    1  ZINC000432253027   -0.0300
      8 C8         -8.1026    0.9034   55.5693 C.ar    1  ZINC000432253027   -0.0600
      9 C9         -8.0671    1.0622   57.0381 C.2     1  ZINC000432253027    0.1200
     10 N10        -8.3674    0.1383   57.9057 N.2     1  ZINC000432253027   -0.4600
     11 C11        -8.2775    0.4607   59.1760 C.2     1  ZINC000432253027    0.0800
     12 C12        -8.5972   -0.5196   60.2750 C.3     1  ZINC000432253027   -0.0200
     13 S13       -10.3236   -0.3087   60.7903 S.3     1  ZINC000432253027   -0.1700
     14 C14       -11.1758   -1.6549   59.9231 C.3     1  ZINC000432253027   -0.0300
     15 C15       -12.6618   -1.4056   59.9456 C.2     1  ZINC000432253027    0.2100
     16 N16       -13.3170   -0.6574   60.7995 N.2     1  ZINC000432253027   -0.2700
     17 N17       -14.5662   -0.6979   60.4872 N.2     1  ZINC000432253027   -0.0500
     18 N18       -14.7252   -1.4525   59.4562 N.2     1  ZINC000432253027   -0.0700
     19 N19       -13.5732   -1.9034   59.0894 N.pl3   1  ZINC000432253027   -0.3100
     20 C20       -13.3084   -2.7969   57.9591 C.3     1  ZINC000432253027    0.0700
     21 C21       -14.4728   -3.7764   57.7996 C.3     1  ZINC000432253027    0.4300
     22 F22       -14.0354   -4.9125   57.1103 F       1  ZINC000432253027   -0.1500
     23 F23       -14.9444   -4.1500   59.0627 F       1  ZINC000432253027   -0.1700
     24 F24       -15.5035   -3.1623   57.0799 F       1  ZINC000432253027   -0.1700
     25 C25        -7.8843    1.7120   59.4334 C.2     1  ZINC000432253027   -0.2500
     26 S26        -7.6045    2.5291   57.8970 S.3     1  ZINC000432253027    0.1600
     27 H27       -12.3038    0.1492   56.0846 H       1  ZINC000432253027    0.1000
     28 H28       -11.4599    1.6336   55.5820 H       1  ZINC000432253027    0.0600
     29 H29       -11.8237    0.3678   54.3846 H       1  ZINC000432253027    0.0600
     30 H30       -10.1120   -0.2389   53.0900 H       1  ZINC000432253027    0.1400
     31 H31        -8.1883    0.4848   51.7403 H       1  ZINC000432253027    0.1300
     32 H32        -6.2130    1.4701   52.8233 H       1  ZINC000432253027    0.1300
     33 H33        -6.1450    1.7381   55.2660 H       1  ZINC000432253027    0.1400
     34 H34        -8.4485   -1.5359   59.9099 H       1  ZINC000432253027    0.1000
     35 H35        -7.9395   -0.3394   61.1254 H       1  ZINC000432253027    0.1100
     36 H36       -10.8302   -1.6978   58.8902 H       1  ZINC000432253027    0.1100
     37 H37       -10.9585   -2.6011   60.4185 H       1  ZINC000432253027    0.1300
     38 H38       -13.2013   -2.2083   57.0479 H       1  ZINC000432253027    0.1500
     39 H39       -12.3888   -3.3525   58.1430 H       1  ZINC000432253027    0.1600
     40 H40        -7.7565    2.1463   60.4139 H       1  ZINC000432253027    0.1800
@<TRIPOS>BOND
     1     1     2    1
     2     1    27    1
     3     1    28    1
     4     1    29    1
     5     2     3    1
     6     3     8   ar
     7     3     4   ar
     8     4     5   ar
     9     4    30    1
    10     5     6   ar
    11     5    31    1
    12     6     7   ar
    13     6    32    1
    14     7     8   ar
    15     7    33    1
    16     8     9    1
    17     9    26    1
    18     9    10    2
    19    10    11    1
    20    11    12    1
    21    11    25    2
    22    12    13    1
    23    12    34    1
    24    12    35    1
    25    13    14    1
    26    14    15    1
    27    14    36    1
    28    14    37    1
    29    15    19    1
    30    15    16    2
    31    16    17    1
    32    17    18    2
    33    18    19    1
    34    19    20    1
    35    20    21    1
    36    20    38    1
    37    20    39    1
    38    21    22    1
    39    21    23    1
    40    21    24    1
    41    25    26    1
    42    25    40    1
@<TRIPOS>SUBSTRUCTURE
     1 ZINC000432253027        1 TEMP              0 ****  ****    0 ROOT


##########                                Name:    ZINC000027473870
##########                DOCK_Rotatable_Bonds:                  10
##########                         Heavy_Atoms:                  31
##########                    Molecular_Weight:             422.502
##########                DOCK_Rotatable_Bonds:                  10
##########                       Formal_Charge:        -7.45058e-08
##########                     HBond_Acceptors:                   7
##########                        HBond_Donors:                   1
##########                         Heavy_Atoms:                  31
##########                          Grid_Score:          -30.381771
##########                     Grid_vdw_energy:          -29.810944
##########                      Grid_es_energy:           -0.570827
##########           Internal_energy_repulsive:           20.666515

@<TRIPOS>MOLECULE
ZINC000027473870
 58 60 1 0 0
SMALL
USER_CHARGES


@<TRIPOS>ATOM
      1 C1         -8.0546    1.0060   59.2125 C.3     1  ZINC000027473870   -0.1400
      2 C2         -8.9387    1.7258   58.1921 C.3     1  ZINC000027473870   -0.0800
      3 C3         -8.4994    1.3574   56.7984 C.2     1  ZINC000027473870    0.1700
      4 C4         -7.4295    1.8936   56.1098 C.2     1  ZINC000027473870   -0.2900
      5 C5         -6.5049    2.9316   56.6002 C.2     1  ZINC000027473870    0.6000
      6 O6         -6.9078    3.7993   57.3509 O.2     1  ZINC000027473870   -0.5400
      7 N7         -5.2129    2.9191   56.2168 N.am    1  ZINC000027473870   -0.7200
      8 C8         -4.2936    3.9497   56.7056 C.3     1  ZINC000027473870    0.1600
      9 C9         -3.2953    3.3266   57.6470 C.ar    1  ZINC000027473870   -0.0900
     10 C10        -3.2677    3.7121   58.9755 C.ar    1  ZINC000027473870   -0.1100
     11 C11        -2.3561    3.1461   59.8425 C.ar    1  ZINC000027473870   -0.1100
     12 C12        -1.4605    2.1822   59.3767 C.ar    1  ZINC000027473870   -0.1200
     13 C13        -0.4809    1.5709   60.3003 C.2     1  ZINC000027473870    0.5600
     14 O14        -0.8277    0.6808   61.0519 O.2     1  ZINC000027473870   -0.5300
     15 N15         0.7965    2.0006   60.3087 N.am    1  ZINC000027473870   -0.6100
     16 C16         1.2144    3.0733   59.4028 C.3     1  ZINC000027473870    0.1100
     17 C17         1.6959    2.4675   58.0830 C.3     1  ZINC000027473870   -0.1700
     18 C18         1.7670    1.3949   61.2239 C.3     1  ZINC000027473870    0.0900
     19 C19         1.7689    2.1632   62.5470 C.3     1  ZINC000027473870   -0.1800
     20 C20        -1.4938    1.7974   58.0355 C.ar    1  ZINC000027473870   -0.0700
     21 C21        -2.4140    2.3676   57.1802 C.ar    1  ZINC000027473870   -0.1000
     22 C22        -7.3864    1.2608   54.8468 C.2     1  ZINC000027473870    0.0900
     23 N23        -8.3686    0.4036   54.7902 N.2     1  ZINC000027473870   -0.2800
     24 N24        -9.0739    0.4413   55.9982 N.pl3   1  ZINC000027473870   -0.3100
     25 C25       -10.1957   -0.3372   56.3169 C.ar    1  ZINC000027473870    0.1300
     26 C26       -10.0448   -1.5055   57.0516 C.ar    1  ZINC000027473870   -0.0900
     27 C27       -11.1510   -2.2708   57.3650 C.ar    1  ZINC000027473870   -0.1300
     28 C28       -12.4099   -1.8734   56.9469 C.ar    1  ZINC000027473870    0.1100
     29 F29       -13.4909   -2.6230   57.2547 F       1  ZINC000027473870   -0.1300
     30 C30       -12.5623   -0.7082   56.2139 C.ar    1  ZINC000027473870   -0.1400
     31 C31       -11.4592    0.0623   55.9030 C.ar    1  ZINC000027473870   -0.0700
     32 H32        -8.3141    1.3392   60.2172 H       1  ZINC000027473870    0.0700
     33 H33        -8.2117   -0.0698   59.1345 H       1  ZINC000027473870    0.0700
     34 H34        -7.0079    1.2358   59.0124 H       1  ZINC000027473870    0.0500
     35 H35        -9.9771    1.4275   58.3366 H       1  ZINC000027473870    0.1200
     36 H36        -8.8479    2.8034   58.3288 H       1  ZINC000027473870    0.0800
     37 H37        -4.8917    2.2276   55.6170 H       1  ZINC000027473870    0.4000
     38 H38        -3.7677    4.3970   55.8623 H       1  ZINC000027473870    0.0800
     39 H39        -4.8577    4.7197   57.2318 H       1  ZINC000027473870    0.0800
     40 H40        -3.9613    4.4581   59.3346 H       1  ZINC000027473870    0.1300
     41 H41        -2.3351    3.4483   60.8791 H       1  ZINC000027473870    0.1500
     42 H42         0.3709    3.7368   59.2117 H       1  ZINC000027473870    0.0800
     43 H43         2.0257    3.6396   59.8601 H       1  ZINC000027473870    0.0800
     44 H44         2.0068    3.2657   57.4089 H       1  ZINC000027473870    0.0700
     45 H45         2.5394    1.8041   58.2740 H       1  ZINC000027473870    0.0600
     46 H46         0.8845    1.9012   57.6257 H       1  ZINC000027473870    0.0600
     47 H47         1.4938    0.3558   61.4076 H       1  ZINC000027473870    0.0800
     48 H48         2.7611    1.4359   60.7785 H       1  ZINC000027473870    0.0900
     49 H49         2.6509    1.8886   63.1254 H       1  ZINC000027473870    0.0700
     50 H50         1.7856    3.2342   62.3452 H       1  ZINC000027473870    0.0700
     51 H51         0.8711    1.9142   63.1130 H       1  ZINC000027473870    0.0600
     52 H52        -0.8032    1.0524   57.6688 H       1  ZINC000027473870    0.1300
     53 H53        -2.4412    2.0706   56.1422 H       1  ZINC000027473870    0.1300
     54 H54        -6.6667    1.4535   54.0650 H       1  ZINC000027473870    0.1900
     55 H55        -9.0631   -1.8160   57.3776 H       1  ZINC000027473870    0.1500
     56 H56       -11.0340   -3.1798   57.9363 H       1  ZINC000027473870    0.1500
     57 H57       -13.5450   -0.4002   55.8883 H       1  ZINC000027473870    0.1500
     58 H58       -11.5785    0.9710   55.3317 H       1  ZINC000027473870    0.1400
@<TRIPOS>BOND
     1     1     2    1
     2     1    32    1
     3     1    33    1
     4     1    34    1
     5     2     3    1
     6     2    35    1
     7     2    36    1
     8     3    24    1
     9     3     4    2
    10     4     5    1
    11     4    22    1
    12     5     6    2
    13     5     7   am
    14     7     8    1
    15     7    37    1
    16     8     9    1
    17     8    38    1
    18     8    39    1
    19     9    21   ar
    20     9    10   ar
    21    10    11   ar
    22    10    40    1
    23    11    12   ar
    24    11    41    1
    25    12    13    1
    26    12    20   ar
    27    13    14    2
    28    13    15   am
    29    15    16    1
    30    15    18    1
    31    16    17    1
    32    16    42    1
    33    16    43    1
    34    17    44    1
    35    17    45    1
    36    17    46    1
    37    18    19    1
    38    18    47    1
    39    18    48    1
    40    19    49    1
    41    19    50    1
    42    19    51    1
    43    20    21   ar
    44    20    52    1
    45    21    53    1
    46    22    23    2
    47    22    54    1
    48    23    24    1
    49    24    25    1
    50    25    31   ar
    51    25    26   ar
    52    26    27   ar
    53    26    55    1
    54    27    28   ar
    55    27    56    1
    56    28    29    1
    57    28    30   ar
    58    30    31   ar
    59    30    57    1
    60    31    58    1
@<TRIPOS>SUBSTRUCTURE
     1 ZINC000027473870        1 TEMP              0 ****  ****    0 ROOT


##########                                Name:    ZINC001087843226
##########                DOCK_Rotatable_Bonds:                   6
##########                         Heavy_Atoms:                  27
##########                    Molecular_Weight:             368.479
##########                DOCK_Rotatable_Bonds:                   6
##########                       Formal_Charge:        -4.47035e-07
##########                     HBond_Acceptors:                   6
##########                        HBond_Donors:                   1
##########                         Heavy_Atoms:                  27
##########                          Grid_Score:          -30.380142
##########                     Grid_vdw_energy:          -31.377964
##########                      Grid_es_energy:            0.997822
##########           Internal_energy_repulsive:           30.046391

@<TRIPOS>MOLECULE
ZINC001087843226
 55 58 1 0 0
SMALL
USER_CHARGES


@<TRIPOS>ATOM
      1 C1        -12.8153    1.6883   54.4158 C.3     1  ZINC001087843226   -0.1500
      2 C2        -13.2687    0.5461   55.3272 C.3     1  ZINC001087843226   -0.1500
      3 C3        -12.0576   -0.0308   56.0629 C.3     1  ZINC001087843226    0.0700
      4 H4        -11.5298    0.7648   56.5887 H       1  ZINC001087843226    0.1000
      5 C5        -11.1085   -0.7145   55.0563 C.3     1  ZINC001087843226    0.1300
      6 H6        -11.6483   -1.0082   54.1560 H       1  ZINC001087843226    0.1000
      7 N7         -9.9870    0.1665   54.7212 N.am    1  ZINC001087843226   -0.7200
      8 C8         -9.0600   -0.2327   53.8280 C.2     1  ZINC001087843226    0.5600
      9 O9         -9.1537   -1.3243   53.3016 O.2     1  ZINC001087843226   -0.5300
     10 C10        -7.9291    0.6571   53.4886 C.ar    1  ZINC001087843226   -0.1400
     11 C11        -7.3947    0.6465   52.2006 C.ar    1  ZINC001087843226   -0.0800
     12 C12        -6.3394    1.4793   51.8899 C.ar    1  ZINC001087843226   -0.1300
     13 C13        -5.8143    2.3210   52.8523 C.ar    1  ZINC001087843226   -0.0400
     14 C14        -4.6617    3.2274   52.5041 C.3     1  ZINC001087843226   -0.1200
     15 C15        -6.3397    2.3384   54.1354 C.ar    1  ZINC001087843226   -0.1100
     16 C16        -7.3979    1.5143   54.4570 C.ar    1  ZINC001087843226   -0.0300
     17 C17        -7.7848    1.7172   55.9061 C.3     1  ZINC001087843226   -0.0800
     18 C18        -6.5763    2.4290   56.5505 C.3     1  ZINC001087843226   -0.1200
     19 C19        -5.9434    3.1586   55.3447 C.3     1  ZINC001087843226   -0.0800
     20 C20       -10.6165   -1.9641   55.8331 C.3     1  ZINC001087843226   -0.1400
     21 C21       -11.8832   -2.3523   56.6358 C.3     1  ZINC001087843226    0.0400
     22 N22       -12.4973   -1.0604   57.0224 N.3     1  ZINC001087843226   -0.5100
     23 C23       -13.9625   -1.1616   57.0513 C.3     1  ZINC001087843226    0.1100
     24 C24       -14.3723   -2.2455   58.0148 C.2     1  ZINC001087843226    0.0800
     25 N25       -14.6608   -3.4701   57.6892 N.2     1  ZINC001087843226   -0.2700
     26 O26       -14.9933   -4.1599   58.8835 O.3     1  ZINC001087843226    0.0300
     27 N27       -14.8705   -3.2178   59.9373 N.2     1  ZINC001087843226   -0.2800
     28 C28       -14.4965   -2.0907   59.4097 C.2     1  ZINC001087843226    0.0900
     29 C29       -14.2452   -0.8141   60.1701 C.3     1  ZINC001087843226   -0.0900
     30 H30       -13.6660    2.0537   53.8406 H       1  ZINC001087843226    0.0600
     31 H31       -12.4118    2.4989   55.0225 H       1  ZINC001087843226    0.0600
     32 H32       -12.0451    1.3260   53.7349 H       1  ZINC001087843226    0.0600
     33 H33       -13.9886    0.9243   56.0531 H       1  ZINC001087843226    0.0800
     34 H34       -13.7347   -0.2350   54.7264 H       1  ZINC001087843226    0.0700
     35 H35        -9.9116    1.0371   55.1423 H       1  ZINC001087843226    0.4000
     36 H36        -7.8052   -0.0115   51.4490 H       1  ZINC001087843226    0.1300
     37 H37        -5.9229    1.4732   50.8935 H       1  ZINC001087843226    0.1300
     38 H38        -5.0460    4.1799   52.1394 H       1  ZINC001087843226    0.0800
     39 H39        -4.0522    3.3973   53.3916 H       1  ZINC001087843226    0.0700
     40 H40        -4.0535    2.7605   51.7295 H       1  ZINC001087843226    0.0700
     41 H41        -8.6742    2.3435   55.9761 H       1  ZINC001087843226    0.0800
     42 H42        -7.9593    0.7558   56.3891 H       1  ZINC001087843226    0.0900
     43 H43        -6.9047    3.1440   57.3049 H       1  ZINC001087843226    0.0800
     44 H44        -5.8824    1.7048   56.9774 H       1  ZINC001087843226    0.0700
     45 H45        -4.8581    3.1807   55.4432 H       1  ZINC001087843226    0.0800
     46 H46        -6.3375    4.1718   55.2663 H       1  ZINC001087843226    0.0800
     47 H47       -10.3287   -2.7615   55.1479 H       1  ZINC001087843226    0.0800
     48 H48        -9.7937   -1.7094   56.5011 H       1  ZINC001087843226    0.0800
     49 H49       -12.5669   -2.9271   56.0111 H       1  ZINC001087843226    0.0600
     50 H50       -11.6097   -2.9218   57.5240 H       1  ZINC001087843226    0.0800
     51 H51       -14.3862   -0.2103   57.3730 H       1  ZINC001087843226    0.1200
     52 H52       -14.3296   -1.4041   56.0540 H       1  ZINC001087843226    0.0700
     53 H53       -13.1824   -0.7293   60.3966 H       1  ZINC001087843226    0.1000
     54 H54       -14.5566    0.0369   59.5642 H       1  ZINC001087843226    0.0900
     55 H55       -14.8149   -0.8265   61.0992 H       1  ZINC001087843226    0.0900
@<TRIPOS>BOND
     1     1     2    1
     2     1    30    1
     3     1    31    1
     4     1    32    1
     5     2     3    1
     6     2    33    1
     7     2    34    1
     8     3     4    1
     9     3    22    1
    10     3     5    1
    11     5     6    1
    12     5     7    1
    13     5    20    1
    14     7     8   am
    15     7    35    1
    16     8     9    2
    17     8    10    1
    18    10    16   ar
    19    10    11   ar
    20    11    12   ar
    21    11    36    1
    22    12    13   ar
    23    12    37    1
    24    13    14    1
    25    13    15   ar
    26    14    38    1
    27    14    39    1
    28    14    40    1
    29    15    19    1
    30    15    16   ar
    31    16    17    1
    32    17    18    1
    33    17    41    1
    34    17    42    1
    35    18    19    1
    36    18    43    1
    37    18    44    1
    38    19    45    1
    39    19    46    1
    40    20    21    1
    41    20    47    1
    42    20    48    1
    43    21    22    1
    44    21    49    1
    45    21    50    1
    46    22    23    1
    47    23    24    1
    48    23    51    1
    49    23    52    1
    50    24    28    1
    51    24    25    2
    52    25    26    1
    53    26    27    1
    54    27    28    2
    55    28    29    1
    56    29    53    1
    57    29    54    1
    58    29    55    1
@<TRIPOS>SUBSTRUCTURE
     1 ZINC001087843226        1 TEMP              0 ****  ****    0 ROOT


##########                                Name:    ZINC000762187039
##########                DOCK_Rotatable_Bonds:                   9
##########                         Heavy_Atoms:                  25
##########                    Molecular_Weight:             354.473
##########                DOCK_Rotatable_Bonds:                   9
##########                       Formal_Charge:        -1.78814e-07
##########                     HBond_Acceptors:                   5
##########                        HBond_Donors:                   1
##########                         Heavy_Atoms:                  25
##########                          Grid_Score:          -30.377542
##########                     Grid_vdw_energy:          -28.921865
##########                      Grid_es_energy:           -1.455677
##########           Internal_energy_repulsive:            5.476511

@<TRIPOS>MOLECULE
ZINC000762187039
 47 49 1 0 0
SMALL
USER_CHARGES


@<TRIPOS>ATOM
      1 C1         -7.3476   -0.7417   66.4896 C.3     1  ZINC000762187039   -0.0800
      2 C2         -7.8267    0.6612   66.7608 C.2     1  ZINC000762187039    0.0500
      3 N3         -8.9380    1.1578   66.3328 N.2     1  ZINC000762187039   -0.4700
      4 C4         -9.2055    2.4052   66.6631 C.2     1  ZINC000762187039    0.0700
      5 C5        -10.4658    3.1101   66.2326 C.3     1  ZINC000762187039   -0.0300
      6 C6        -10.1839    3.9381   64.9774 C.3     1  ZINC000762187039   -0.1300
      7 C7        -10.2930    3.0572   63.7594 C.2     1  ZINC000762187039    0.5200
      8 O8        -11.3800    2.6687   63.3876 O.2     1  ZINC000762187039   -0.5400
      9 N9         -9.1826    2.7011   63.0837 N.am    1  ZINC000762187039   -0.7300
     10 C10        -9.2885    1.8434   61.9008 C.3     1  ZINC000762187039    0.1200
     11 C11        -9.0561    0.3861   62.3049 C.3     1  ZINC000762187039   -0.1300
     12 C12        -8.8318   -0.4613   61.0510 C.3     1  ZINC000762187039    0.0600
     13 O13       -10.0891   -0.7327   60.4282 O.3     1  ZINC000762187039   -0.3100
     14 C14       -10.0654   -1.0707   59.1124 C.ar    1  ZINC000762187039    0.1300
     15 C15       -10.5110   -2.3355   58.7168 C.ar    1  ZINC000762187039   -0.1900
     16 C16       -10.4996   -2.7030   57.4072 C.ar    1  ZINC000762187039   -0.0600
     17 C17       -10.0344   -1.8014   56.4344 C.ar    1  ZINC000762187039   -0.0800
     18 C18       -10.0093   -2.1480   55.0727 C.ar    1  ZINC000762187039   -0.0900
     19 C19        -9.5528   -1.2502   54.1574 C.ar    1  ZINC000762187039   -0.1300
     20 C20        -9.1084    0.0114   54.5491 C.ar    1  ZINC000762187039   -0.1000
     21 C21        -9.1178    0.3822   55.8584 C.ar    1  ZINC000762187039   -0.1200
     22 C22        -9.5825   -0.5182   56.8330 C.ar    1  ZINC000762187039   -0.0100
     23 C23        -9.6118   -0.1683   58.1925 C.ar    1  ZINC000762187039   -0.1500
     24 C24        -8.2675    2.9936   67.4115 C.2     1  ZINC000762187039   -0.2600
     25 S25        -6.9798    1.8228   67.6864 S.3     1  ZINC000762187039    0.1200
     26 H26        -6.3830   -0.8961   66.9732 H       1  ZINC000762187039    0.0800
     27 H27        -8.0705   -1.4553   66.8848 H       1  ZINC000762187039    0.0900
     28 H28        -7.2427   -0.8883   65.4146 H       1  ZINC000762187039    0.0900
     29 H29       -11.2387    2.3728   66.0155 H       1  ZINC000762187039    0.0900
     30 H30       -10.8057    3.7678   67.0328 H       1  ZINC000762187039    0.0900
     31 H31       -10.9095    4.7483   64.9059 H       1  ZINC000762187039    0.0900
     32 H32        -9.1784    4.3549   65.0353 H       1  ZINC000762187039    0.1000
     33 H33        -8.3134    3.0128   63.3805 H       1  ZINC000762187039    0.4000
     34 H34       -10.2828    1.9456   61.4658 H       1  ZINC000762187039    0.0700
     35 H35        -8.5389    2.1411   61.1677 H       1  ZINC000762187039    0.0700
     36 H36        -8.1782    0.3231   62.9479 H       1  ZINC000762187039    0.0800
     37 H37        -9.9282    0.0148   62.8432 H       1  ZINC000762187039    0.0800
     38 H38        -8.1915    0.0812   60.3555 H       1  ZINC000762187039    0.0700
     39 H39        -8.3534   -1.4007   61.3281 H       1  ZINC000762187039    0.0700
     40 H40       -10.8692   -3.0307   59.4617 H       1  ZINC000762187039    0.1300
     41 H41       -10.8462   -3.6835   57.1162 H       1  ZINC000762187039    0.1300
     42 H42       -10.3503   -3.1220   54.7542 H       1  ZINC000762187039    0.1300
     43 H43        -9.5344   -1.5196   53.1116 H       1  ZINC000762187039    0.1200
     44 H44        -8.7507    0.7049   53.8024 H       1  ZINC000762187039    0.1200
     45 H45        -8.7704    1.3632   56.1473 H       1  ZINC000762187039    0.1300
     46 H46        -9.2742    0.8073   58.5097 H       1  ZINC000762187039    0.1300
     47 H47        -8.2957    4.0065   67.7849 H       1  ZINC000762187039    0.1800
@<TRIPOS>BOND
     1     1     2    1
     2     1    26    1
     3     1    27    1
     4     1    28    1
     5     2    25    1
     6     2     3    2
     7     3     4    1
     8     4     5    1
     9     4    24    2
    10     5     6    1
    11     5    29    1
    12     5    30    1
    13     6     7    1
    14     6    31    1
    15     6    32    1
    16     7     8    2
    17     7     9   am
    18     9    10    1
    19     9    33    1
    20    10    11    1
    21    10    34    1
    22    10    35    1
    23    11    12    1
    24    11    36    1
    25    11    37    1
    26    12    13    1
    27    12    38    1
    28    12    39    1
    29    13    14    1
    30    14    23   ar
    31    14    15   ar
    32    15    16   ar
    33    15    40    1
    34    16    17   ar
    35    16    41    1
    36    17    22   ar
    37    17    18   ar
    38    18    19   ar
    39    18    42    1
    40    19    20   ar
    41    19    43    1
    42    20    21   ar
    43    20    44    1
    44    21    22   ar
    45    21    45    1
    46    22    23   ar
    47    23    46    1
    48    24    25    1
    49    24    47    1
@<TRIPOS>SUBSTRUCTURE
     1 ZINC000762187039        1 TEMP              0 ****  ****    0 ROOT


##########                                Name:    ZINC000530457945
##########                DOCK_Rotatable_Bonds:                   4
##########                         Heavy_Atoms:                  25
##########                    Molecular_Weight:             355.827
##########                DOCK_Rotatable_Bonds:                   4
##########                       Formal_Charge:           0.0199997
##########                     HBond_Acceptors:                   7
##########                        HBond_Donors:                   1
##########                         Heavy_Atoms:                  25
##########                          Grid_Score:          -30.373596
##########                     Grid_vdw_energy:          -29.878130
##########                      Grid_es_energy:           -0.495467
##########           Internal_energy_repulsive:           30.386026

@<TRIPOS>MOLECULE
ZINC000530457945
 43 46 1 0 0
SMALL
USER_CHARGES


@<TRIPOS>ATOM
      1 C1         -9.8156    0.3794   57.2787 C.3     1  ZINC000530457945   -0.1700
      2 C2        -10.6506   -0.6890   57.9873 C.3     1  ZINC000530457945    0.0900
      3 H3        -11.3562   -0.2155   58.6699 H       1  ZINC000530457945    0.1100
      4 C4         -9.7255   -1.6456   58.7687 C.3     1  ZINC000530457945   -0.1200
      5 H5         -8.7194   -1.6368   58.3495 H       1  ZINC000530457945    0.1100
      6 C6         -9.6948   -1.2811   60.2306 C.2     1  ZINC000530457945    0.5300
      7 O7        -10.6405   -1.5468   60.9418 O.2     1  ZINC000530457945   -0.4700
      8 N8         -8.6162   -0.6598   60.7476 N.am    1  ZINC000530457945   -0.6200
      9 C9         -8.5883   -0.3205   62.1021 C.2     1  ZINC000530457945    0.4800
     10 N10        -7.6628   -0.6960   62.9615 N.2     1  ZINC000530457945   -0.3000
     11 N11        -8.0067   -0.1445   64.2039 N.pl3   1  ZINC000530457945   -0.2800
     12 C12        -7.4296   -0.1950   65.4334 C.2     1  ZINC000530457945    0.1400
     13 C13        -7.9910    0.4473   66.4840 C.2     1  ZINC000530457945   -0.0800
     14 Cl14       -7.2395    0.3714   68.0470 Cl      1  ZINC000530457945   -0.0200
     15 C15        -9.1786    1.1748   66.3132 C.2     1  ZINC000530457945   -0.0500
     16 C16        -9.7626    1.2305   65.0838 C.2     1  ZINC000530457945   -0.0900
     17 C17        -9.1627    0.5554   64.0059 C.2     1  ZINC000530457945    0.3000
     18 N18        -9.4883    0.4357   62.7225 N.2     1  ZINC000530457945   -0.5500
     19 C19       -10.3953   -3.0291   58.5583 C.3     1  ZINC000530457945   -0.1200
     20 C20       -10.9258   -2.9027   57.1084 C.3     1  ZINC000530457945    0.0400
     21 N21       -11.3801   -1.4969   56.9927 N.3     1  ZINC000530457945   -0.4900
     22 C22       -11.1715   -1.0082   55.7009 C.ar    1  ZINC000530457945    0.1000
     23 C23       -12.1502   -0.2430   55.0796 C.ar    1  ZINC000530457945   -0.1600
     24 C24       -11.9405    0.2390   53.8025 C.ar    1  ZINC000530457945   -0.1100
     25 C25       -10.7579   -0.0399   53.1421 C.ar    1  ZINC000530457945   -0.1300
     26 C26        -9.7816   -0.8015   53.7576 C.ar    1  ZINC000530457945   -0.1100
     27 C27        -9.9824   -1.2817   55.0368 C.ar    1  ZINC000530457945   -0.1000
     28 H28       -10.4601    0.9739   56.6311 H       1  ZINC000530457945    0.0700
     29 H29        -9.3490    1.0272   58.0207 H       1  ZINC000530457945    0.0600
     30 H30        -9.0428   -0.1019   56.6793 H       1  ZINC000530457945    0.0600
     31 H31        -7.8593   -0.4484   60.1790 H       1  ZINC000530457945    0.4300
     32 H32        -6.5155   -0.7528   65.5732 H       1  ZINC000530457945    0.1800
     33 H33        -9.6271    1.6872   67.1515 H       1  ZINC000530457945    0.1600
     34 H34       -10.6770    1.7866   64.9387 H       1  ZINC000530457945    0.1700
     35 H35        -9.6637   -3.8332   58.6376 H       1  ZINC000530457945    0.0900
     36 H36       -11.2142   -3.1774   59.2622 H       1  ZINC000530457945    0.0900
     37 H37       -10.1283   -3.1051   56.3935 H       1  ZINC000530457945    0.0700
     38 H38       -11.7613   -3.5842   56.9493 H       1  ZINC000530457945    0.0900
     39 H39       -13.0742   -0.0253   55.5946 H       1  ZINC000530457945    0.1200
     40 H40       -12.7010    0.8341   53.3189 H       1  ZINC000530457945    0.1200
     41 H41       -10.5967    0.3376   52.1431 H       1  ZINC000530457945    0.1200
     42 H42        -8.8591   -1.0175   53.2391 H       1  ZINC000530457945    0.1300
     43 H43        -9.2194   -1.8762   55.5171 H       1  ZINC000530457945    0.1300
@<TRIPOS>BOND
     1     1     2    1
     2     1    28    1
     3     1    29    1
     4     1    30    1
     5     2     3    1
     6     2    21    1
     7     2     4    1
     8     4     5    1
     9     4     6    1
    10     4    19    1
    11     6     7    2
    12     6     8   am
    13     8     9    1
    14     8    31    1
    15     9    18    1
    16     9    10    2
    17    10    11    1
    18    11    17    1
    19    11    12    1
    20    12    13    2
    21    12    32    1
    22    13    14    1
    23    13    15    1
    24    15    16    2
    25    15    33    1
    26    16    17    1
    27    16    34    1
    28    17    18    2
    29    19    20    1
    30    19    35    1
    31    19    36    1
    32    20    21    1
    33    20    37    1
    34    20    38    1
    35    21    22    1
    36    22    27   ar
    37    22    23   ar
    38    23    24   ar
    39    23    39    1
    40    24    25   ar
    41    24    40    1
    42    25    26   ar
    43    25    41    1
    44    26    27   ar
    45    26    42    1
    46    27    43    1
@<TRIPOS>SUBSTRUCTURE
     1 ZINC000530457945        1 TEMP              0 ****  ****    0 ROOT


##########                                Name:    ZINC000471198073
##########                DOCK_Rotatable_Bonds:                  12
##########                         Heavy_Atoms:                  30
##########                    Molecular_Weight:             409.528
##########                DOCK_Rotatable_Bonds:                  12
##########                       Formal_Charge:          -0.0399998
##########                     HBond_Acceptors:                   6
##########                        HBond_Donors:                   3
##########                         Heavy_Atoms:                  30
##########                          Grid_Score:          -30.373341
##########                     Grid_vdw_energy:          -27.546774
##########                      Grid_es_energy:           -2.826566
##########           Internal_energy_repulsive:           22.194712

@<TRIPOS>MOLECULE
ZINC000471198073
 61 62 1 0 0
SMALL
USER_CHARGES


@<TRIPOS>ATOM
      1 C1         -6.4971    3.5977   51.9793 C.3     1  ZINC000471198073   -0.1400
      2 C2         -5.6757    2.8080   53.0004 C.3     1  ZINC000471198073   -0.1100
      3 C3         -4.2655    3.3956   53.0846 C.3     1  ZINC000471198073   -0.1500
      4 C4         -6.3371    2.8941   54.3517 C.2     1  ZINC000471198073    0.5200
      5 O5         -7.3083    3.6036   54.5075 O.2     1  ZINC000471198073   -0.5200
      6 N6         -5.8495    2.1824   55.3872 N.am    1  ZINC000471198073   -0.6700
      7 C7         -6.4636    2.2623   56.6420 C.ar    1  ZINC000471198073    0.1600
      8 C8         -5.9684    3.1331   57.6043 C.ar    1  ZINC000471198073   -0.1500
      9 C9         -6.5744    3.2131   58.8437 C.ar    1  ZINC000471198073   -0.0800
     10 C10        -7.6741    2.4280   59.1300 C.ar    1  ZINC000471198073   -0.1300
     11 C11        -8.1744    1.5542   58.1718 C.ar    1  ZINC000471198073    0.1500
     12 N12        -9.2866    0.7598   58.4621 N.am    1  ZINC000471198073   -0.6400
     13 C13        -9.1207   -0.5345   58.7995 C.2     1  ZINC000471198073    0.5100
     14 O14        -8.0051   -1.0100   58.8512 O.2     1  ZINC000471198073   -0.5000
     15 C15       -10.3095   -1.3836   59.1099 C.2     1  ZINC000471198073    0.5100
     16 O16       -10.1801   -2.3874   59.7796 O.2     1  ZINC000471198073   -0.5100
     17 N17       -11.5261   -1.0351   58.6461 N.am    1  ZINC000471198073   -0.7000
     18 C18       -12.6919   -1.8689   58.9490 C.3     1  ZINC000471198073    0.1200
     19 C19       -13.9663   -1.1391   58.5199 C.3     1  ZINC000471198073   -0.0900
     20 H20       -13.9027   -0.0921   58.8164 H       1  ZINC000471198073    0.0800
     21 C21       -14.1193   -1.2305   57.0003 C.3     1  ZINC000471198073   -0.0800
     22 C22       -13.3196   -0.1322   56.3480 C.ar    1  ZINC000471198073   -0.0800
     23 C23       -12.0027   -0.3545   55.9914 C.ar    1  ZINC000471198073   -0.1200
     24 C24       -11.2691    0.6529   55.3932 C.ar    1  ZINC000471198073   -0.1200
     25 C25       -11.8527    1.8825   55.1511 C.ar    1  ZINC000471198073   -0.1200
     26 C26       -13.1699    2.1044   55.5068 C.ar    1  ZINC000471198073   -0.1200
     27 C27       -13.9047    1.0957   56.1011 C.ar    1  ZINC000471198073   -0.1200
     28 C28       -15.1769   -1.7875   59.1943 C.3     1  ZINC000471198073   -0.1000
     29 C29       -15.0483   -3.3101   59.1181 C.3     1  ZINC000471198073   -0.1600
     30 C30       -15.2372   -1.3536   60.6603 C.3     1  ZINC000471198073   -0.1700
     31 C31        -7.5713    1.4759   56.9242 C.ar    1  ZINC000471198073   -0.1400
     32 H32        -6.0187    3.5355   51.0019 H       1  ZINC000471198073    0.0700
     33 H33        -7.5018    3.1791   51.9194 H       1  ZINC000471198073    0.0600
     34 H34        -6.5561    4.6410   52.2892 H       1  ZINC000471198073    0.0600
     35 H35        -5.6167    1.7648   52.6905 H       1  ZINC000471198073    0.1000
     36 H36        -4.3245    4.4390   53.3944 H       1  ZINC000471198073    0.0600
     37 H37        -3.6802    2.8331   53.8120 H       1  ZINC000471198073    0.0600
     38 H38        -3.7871    3.3334   52.1071 H       1  ZINC000471198073    0.0700
     39 H39        -5.0727    1.6150   55.2627 H       1  ZINC000471198073    0.4100
     40 H40        -5.1085    3.7482   57.3837 H       1  ZINC000471198073    0.1300
     41 H41        -6.1872    3.8908   59.5901 H       1  ZINC000471198073    0.1300
     42 H42        -8.1455    2.4928   60.0996 H       1  ZINC000471198073    0.1400
     43 H43       -10.1782    1.1398   58.4208 H       1  ZINC000471198073    0.4200
     44 H44       -11.6296   -0.2322   58.1118 H       1  ZINC000471198073    0.4200
     45 H45       -12.6141   -2.8124   58.4086 H       1  ZINC000471198073    0.0700
     46 H46       -12.7292   -2.0658   60.0204 H       1  ZINC000471198073    0.0800
     47 H47       -13.7553   -2.1985   56.6561 H       1  ZINC000471198073    0.0800
     48 H48       -15.1707   -1.1218   56.7339 H       1  ZINC000471198073    0.0800
     49 H49       -11.5468   -1.3151   56.1806 H       1  ZINC000471198073    0.1200
     50 H50       -10.2400    0.4795   55.1153 H       1  ZINC000471198073    0.1200
     51 H51       -11.2794    2.6697   54.6843 H       1  ZINC000471198073    0.1200
     52 H52       -13.6258    3.0651   55.3179 H       1  ZINC000471198073    0.1200
     53 H53       -14.9339    1.2690   56.3791 H       1  ZINC000471198073    0.1200
     54 H54       -16.0880   -1.4737   58.6848 H       1  ZINC000471198073    0.0800
     55 H55       -14.1919   -3.6326   59.7101 H       1  ZINC000471198073    0.0600
     56 H56       -15.9551   -3.7713   59.5096 H       1  ZINC000471198073    0.0600
     57 H57       -14.9067   -3.6113   58.0801 H       1  ZINC000471198073    0.0600
     58 H58       -15.2006   -0.2658   60.7190 H       1  ZINC000471198073    0.0600
     59 H59       -16.1653   -1.7104   61.1069 H       1  ZINC000471198073    0.0600
     60 H60       -14.3889   -1.7753   61.1992 H       1  ZINC000471198073    0.0700
     61 H61        -7.9580    0.7977   56.1779 H       1  ZINC000471198073    0.1400
@<TRIPOS>BOND
     1     1     2    1
     2     1    32    1
     3     1    33    1
     4     1    34    1
     5     2     3    1
     6     2     4    1
     7     2    35    1
     8     3    36    1
     9     3    37    1
    10     3    38    1
    11     4     5    2
    12     4     6   am
    13     6     7    1
    14     6    39    1
    15     7    31   ar
    16     7     8   ar
    17     8     9   ar
    18     8    40    1
    19     9    10   ar
    20     9    41    1
    21    10    11   ar
    22    10    42    1
    23    11    12    1
    24    11    31   ar
    25    12    13   am
    26    12    43    1
    27    13    14    2
    28    13    15    1
    29    15    16    2
    30    15    17   am
    31    17    18    1
    32    17    44    1
    33    18    19    1
    34    18    45    1
    35    18    46    1
    36    19    20    1
    37    19    21    1
    38    19    28    1
    39    21    22    1
    40    21    47    1
    41    21    48    1
    42    22    27   ar
    43    22    23   ar
    44    23    24   ar
    45    23    49    1
    46    24    25   ar
    47    24    50    1
    48    25    26   ar
    49    25    51    1
    50    26    27   ar
    51    26    52    1
    52    27    53    1
    53    28    29    1
    54    28    30    1
    55    28    54    1
    56    29    55    1
    57    29    56    1
    58    29    57    1
    59    30    58    1
    60    30    59    1
    61    30    60    1
    62    31    61    1
@<TRIPOS>SUBSTRUCTURE
     1 ZINC000471198073        1 TEMP              0 ****  ****    0 ROOT


##########                                Name:    ZINC001411334959
##########                DOCK_Rotatable_Bonds:                   9
##########                         Heavy_Atoms:                  24
##########                    Molecular_Weight:              339.37
##########                DOCK_Rotatable_Bonds:                   9
##########                       Formal_Charge:           0.0199995
##########                     HBond_Acceptors:                   9
##########                        HBond_Donors:                   3
##########                         Heavy_Atoms:                  24
##########                          Grid_Score:          -30.359480
##########                     Grid_vdw_energy:          -27.775036
##########                      Grid_es_energy:           -2.584444
##########           Internal_energy_repulsive:            7.456394

@<TRIPOS>MOLECULE
ZINC001411334959
 46 48 1 0 0
SMALL
USER_CHARGES


@<TRIPOS>ATOM
      1 O1         -8.5133   -0.6971   61.0130 O.2     1  ZINC001411334959   -0.5400
      2 C2         -8.6790    0.4990   61.1262 C.2     1  ZINC001411334959    0.5200
      3 C3         -9.0336    1.0870   62.4677 C.3     1  ZINC001411334959   -0.1400
      4 C4         -8.5466    0.1540   63.5783 C.3     1  ZINC001411334959   -0.0100
      5 C5         -8.8922    0.7469   64.9200 C.2     1  ZINC001411334959    0.0100
      6 N6         -8.2990    0.5077   66.0675 N.2     1  ZINC001411334959   -0.2800
      7 N7         -8.8776    1.2006   66.9835 N.pl3   1  ZINC001411334959   -0.2500
      8 N8         -9.8392    1.8969   66.4894 N.2     1  ZINC001411334959   -0.2800
      9 C9         -9.9051    1.6678   65.1974 C.2     1  ZINC001411334959   -0.0200
     10 N10        -8.5405    1.3031   60.0534 N.am    1  ZINC001411334959   -0.7200
     11 C11        -8.1958    0.7315   58.7494 C.3     1  ZINC001411334959    0.1200
     12 C12        -9.3076    0.8817   57.6975 C.3     1  ZINC001411334959   -0.1400
     13 C13        -8.1959    1.1903   56.6808 C.3     1  ZINC001411334959   -0.1200
     14 C14        -8.5561    2.3069   55.6989 C.3     1  ZINC001411334959    0.1300
     15 N15        -7.4760    2.4653   54.7220 N.am    1  ZINC001411334959   -0.7200
     16 C16        -7.7308    3.0172   53.5191 C.2     1  ZINC001411334959    0.5100
     17 O17        -8.8541    3.3840   53.2460 O.2     1  ZINC001411334959   -0.5100
     18 C18        -6.6201    3.1785   52.5135 C.3     1  ZINC001411334959    0.0700
     19 F19        -6.1661    4.5015   52.4842 F       1  ZINC001411334959   -0.1800
     20 C20        -5.4553    2.1963   52.8142 C.3     1  ZINC001411334959   -0.1600
     21 C21        -4.8604    2.0027   51.3965 C.3     1  ZINC001411334959    0.0500
     22 O22        -5.9915    2.0095   50.5111 O.3     1  ZINC001411334959   -0.3700
     23 C23        -7.0783    2.7237   51.1111 C.3     1  ZINC001411334959    0.0400
     24 C24        -7.3475    1.6669   57.8716 C.3     1  ZINC001411334959   -0.1400
     25 H25        -8.5556    2.0607   62.5755 H       1  ZINC001411334959    0.1000
     26 H26       -10.1151    1.2032   62.5391 H       1  ZINC001411334959    0.1000
     27 H27        -9.0300   -0.8174   63.4748 H       1  ZINC001411334959    0.1000
     28 H28        -7.4661    0.0320   63.5024 H       1  ZINC001411334959    0.0900
     29 H29        -8.6233    1.1983   67.9195 H       1  ZINC001411334959    0.4700
     30 H30       -10.6035    2.0981   64.4950 H       1  ZINC001411334959    0.2000
     31 H31        -8.6692    2.2602   60.1449 H       1  ZINC001411334959    0.4000
     32 H32        -7.7961   -0.2799   58.8227 H       1  ZINC001411334959    0.1200
     33 H33        -9.8423   -0.0456   57.4920 H       1  ZINC001411334959    0.0800
     34 H34        -9.9745    1.7234   57.8843 H       1  ZINC001411334959    0.0900
     35 H35        -7.7980    0.3040   56.1866 H       1  ZINC001411334959    0.1000
     36 H36        -9.4801    2.0509   55.1805 H       1  ZINC001411334959    0.0800
     37 H37        -8.6924    3.2406   56.2446 H       1  ZINC001411334959    0.0800
     38 H38        -6.5772    2.1730   54.9408 H       1  ZINC001411334959    0.4100
     39 H39        -4.7262    2.6461   53.4880 H       1  ZINC001411334959    0.1000
     40 H40        -5.8293    1.2543   53.2152 H       1  ZINC001411334959    0.1100
     41 H41        -4.1854    2.8235   51.1542 H       1  ZINC001411334959    0.0700
     42 H42        -4.3360    1.0493   51.3333 H       1  ZINC001411334959    0.1000
     43 H43        -7.9463    2.0703   51.1995 H       1  ZINC001411334959    0.0900
     44 H44        -7.3291    3.5936   50.5039 H       1  ZINC001411334959    0.0900
     45 H45        -7.4785    2.7233   58.1059 H       1  ZINC001411334959    0.0900
     46 H46        -6.2998    1.3735   57.8064 H       1  ZINC001411334959    0.0800
@<TRIPOS>BOND
     1     1     2    2
     2     2     3    1
     3     2    10   am
     4     3     4    1
     5     3    25    1
     6     3    26    1
     7     4     5    1
     8     4    27    1
     9     4    28    1
    10     5     9    1
    11     5     6    2
    12     6     7    1
    13     7     8    1
    14     7    29    1
    15     8     9    2
    16     9    30    1
    17    10    11    1
    18    10    31    1
    19    11    24    1
    20    11    12    1
    21    11    32    1
    22    12    13    1
    23    12    33    1
    24    12    34    1
    25    13    14    1
    26    13    24    1
    27    13    35    1
    28    14    15    1
    29    14    36    1
    30    14    37    1
    31    15    16   am
    32    15    38    1
    33    16    17    2
    34    16    18    1
    35    18    23    1
    36    18    19    1
    37    18    20    1
    38    20    21    1
    39    20    39    1
    40    20    40    1
    41    21    22    1
    42    21    41    1
    43    21    42    1
    44    22    23    1
    45    23    43    1
    46    23    44    1
    47    24    45    1
    48    24    46    1
@<TRIPOS>SUBSTRUCTURE
     1 ZINC001411334959        1 TEMP              0 ****  ****    0 ROOT


##########                                Name:    ZINC000821442454
##########                DOCK_Rotatable_Bonds:                   6
##########                         Heavy_Atoms:                  26
##########                    Molecular_Weight:             398.873
##########                DOCK_Rotatable_Bonds:                   6
##########                       Formal_Charge:          -0.0399996
##########                     HBond_Acceptors:                  11
##########                        HBond_Donors:                   2
##########                         Heavy_Atoms:                  26
##########                          Grid_Score:          -30.327047
##########                     Grid_vdw_energy:          -30.070347
##########                      Grid_es_energy:           -0.256700
##########           Internal_energy_repulsive:           12.259631

@<TRIPOS>MOLECULE
ZINC000821442454
 45 47 1 0 0
SMALL
USER_CHARGES


@<TRIPOS>ATOM
      1 C1         -4.5490    4.3532   53.6444 C.3     1  ZINC000821442454   -0.1500
      2 C2         -5.5586    3.3257   54.1601 C.3     1  ZINC000821442454   -0.6300
      3 S3         -6.3234    2.4713   52.7545 S.o2    1  ZINC000821442454    2.6000
      4 O4         -7.1571    3.3603   52.0242 O.2     1  ZINC000821442454   -0.9500
      5 O5         -5.3716    1.6493   52.0929 O.2     1  ZINC000821442454   -0.9500
      6 N6         -7.3779    1.3986   53.4471 N.am    1  ZINC000821442454   -1.0000
      7 C7         -8.1976    0.5098   52.6123 C.3     1  ZINC000821442454    0.1100
      8 C8         -9.6679    0.6790   53.0079 C.3     1  ZINC000821442454   -0.1300
      9 C9         -9.8176    0.4429   54.5125 C.3     1  ZINC000821442454   -0.1100
     10 C10        -8.9893    1.4774   55.2778 C.3     1  ZINC000821442454   -0.1200
     11 H11        -9.3241    2.4802   55.0122 H       1  ZINC000821442454    0.1100
     12 C12        -9.1636    1.2649   56.7596 C.2     1  ZINC000821442454    0.5300
     13 O13       -10.2736    1.1122   57.2239 O.2     1  ZINC000821442454   -0.5100
     14 N14        -8.0860    1.2446   57.5687 N.am    1  ZINC000821442454   -0.6700
     15 C15        -8.2476    1.0474   58.9440 C.ar    1  ZINC000821442454    0.1800
     16 C16        -8.4071   -0.2378   59.4465 C.ar    1  ZINC000821442454   -0.1200
     17 C17        -8.5661   -0.4348   60.8022 C.ar    1  ZINC000821442454   -0.0500
     18 C18        -8.5668    0.6563   61.6688 C.ar    1  ZINC000821442454   -0.0300
     19 C19        -8.7374    0.4460   63.1281 C.2     1  ZINC000821442454    0.2200
     20 N20        -9.3082    1.2731   63.9814 N.2     1  ZINC000821442454   -0.2900
     21 N21        -9.2595    0.7303   65.1493 N.pl3   1  ZINC000821442454   -0.2200
     22 N22        -8.6763   -0.4141   65.0630 N.2     1  ZINC000821442454   -0.0400
     23 N23        -8.3464   -0.6245   63.8340 N.2     1  ZINC000821442454   -0.2700
     24 C24        -8.4067    1.9454   61.1636 C.ar    1  ZINC000821442454   -0.0500
     25 C25        -8.2427    2.1379   59.8074 C.ar    1  ZINC000821442454   -0.0800
     26 Cl26       -8.0431    3.7430   59.1769 Cl      1  ZINC000821442454   -0.0500
     27 C27        -7.5073    1.3133   54.9081 C.3     1  ZINC000821442454    0.1400
     28 H28        -3.7782    3.8457   53.0645 H       1  ZINC000821442454    0.0700
     29 H29        -5.0603    5.0792   53.0122 H       1  ZINC000821442454    0.0700
     30 H30        -4.0896    4.8667   54.4890 H       1  ZINC000821442454    0.0800
     31 H31        -5.0473    2.5997   54.7923 H       1  ZINC000821442454    0.1300
     32 H32        -6.3296    3.8333   54.7399 H       1  ZINC000821442454    0.1300
     33 H33        -8.0690    0.7731   51.5624 H       1  ZINC000821442454    0.1000
     34 H34        -7.8931   -0.5247   52.7715 H       1  ZINC000821442454    0.0700
     35 H35        -9.9963    1.6893   52.7637 H       1  ZINC000821442454    0.0700
     36 H36       -10.2764   -0.0434   52.4639 H       1  ZINC000821442454    0.0800
     37 H37       -10.8667    0.5385   54.7925 H       1  ZINC000821442454    0.0700
     38 H38        -9.4659   -0.5587   54.7597 H       1  ZINC000821442454    0.0800
     39 H39        -7.1983    1.3668   57.1974 H       1  ZINC000821442454    0.4200
     40 H40        -8.4069   -1.0835   58.7747 H       1  ZINC000821442454    0.1600
     41 H41        -8.6904   -1.4343   61.1920 H       1  ZINC000821442454    0.1500
     42 H42        -9.6074    1.1226   65.9653 H       1  ZINC000821442454    0.4800
     43 H43        -8.4071    2.7924   61.8336 H       1  ZINC000821442454    0.1500
     44 H44        -7.1489    0.3445   55.2561 H       1  ZINC000821442454    0.0800
     45 H45        -6.9246    2.1090   55.3724 H       1  ZINC000821442454    0.1000
@<TRIPOS>BOND
     1     1     2    1
     2     1    28    1
     3     1    29    1
     4     1    30    1
     5     2     3    1
     6     2    31    1
     7     2    32    1
     8     3     4    2
     9     3     5    2
    10     3     6   am
    11     6    27    1
    12     6     7    1
    13     7     8    1
    14     7    33    1
    15     7    34    1
    16     8     9    1
    17     8    35    1
    18     8    36    1
    19     9    10    1
    20     9    37    1
    21     9    38    1
    22    10    11    1
    23    10    12    1
    24    10    27    1
    25    12    13    2
    26    12    14   am
    27    14    15    1
    28    14    39    1
    29    15    25   ar
    30    15    16   ar
    31    16    17   ar
    32    16    40    1
    33    17    18   ar
    34    17    41    1
    35    18    19    1
    36    18    24   ar
    37    19    23    1
    38    19    20    2
    39    20    21    1
    40    21    22    1
    41    21    42    1
    42    22    23    2
    43    24    25   ar
    44    24    43    1
    45    25    26    1
    46    27    44    1
    47    27    45    1
@<TRIPOS>SUBSTRUCTURE
     1 ZINC000821442454        1 TEMP              0 ****  ****    0 ROOT


##########                                Name:    ZINC000006915700
##########                DOCK_Rotatable_Bonds:                   5
##########                         Heavy_Atoms:                  26
##########                    Molecular_Weight:             369.447
##########                DOCK_Rotatable_Bonds:                   5
##########                       Formal_Charge:        -1.04308e-07
##########                     HBond_Acceptors:                   8
##########                        HBond_Donors:                   1
##########                         Heavy_Atoms:                  26
##########                          Grid_Score:          -30.317331
##########                     Grid_vdw_energy:          -30.649668
##########                      Grid_es_energy:            0.332337
##########           Internal_energy_repulsive:            7.939837

@<TRIPOS>MOLECULE
ZINC000006915700
 45 48 1 0 0
SMALL
USER_CHARGES


@<TRIPOS>ATOM
      1 C1         -6.4784    2.2151   52.5637 C.3     1  <0>        -0.1200
      2 C2         -7.0052    1.7242   53.8876 C.ar    1  <0>        -0.0500
      3 C3         -6.3957    2.1255   55.0630 C.ar    1  <0>        -0.1300
      4 C4         -6.8736    1.6798   56.2783 C.ar    1  <0>        -0.0600
      5 C5         -7.9735    0.8227   56.3200 C.ar    1  <0>        -0.0700
      6 C6         -8.4917    0.3410   57.6211 C.2     1  <0>         0.4400
      7 N7         -8.2428    1.0399   58.7209 N.2     1  <0>        -0.5200
      8 C8         -8.7043    0.6178   59.9020 C.2     1  <0>         0.3600
      9 C9         -8.6103    1.1209   61.1932 C.2     1  <0>        -0.3200
     10 C10        -9.2958    0.2487   62.0402 C.2     1  <0>         0.5500
     11 O11        -9.4207    0.3775   63.2472 O.2     1  <0>        -0.5200
     12 N12        -9.7967   -0.7593   61.2997 N.am    1  <0>        -0.5000
     13 N13        -9.4394   -0.5480   59.9644 N.pl3   1  <0>        -0.3300
     14 C14        -9.6783   -1.2442   58.8148 C.2     1  <0>         0.3900
     15 S15       -10.6135   -2.7370   58.8587 S.3     1  <0>         0.1200
     16 C16       -11.1576   -2.8176   57.1342 C.3     1  <0>        -0.1500
     17 C17       -12.3109   -1.8699   56.9267 C.2     1  <0>         0.5500
     18 O18       -12.1308   -0.8087   56.3678 O.2     1  <0>        -0.5200
     19 N19       -13.5424   -2.2017   57.3622 N.am    1  <0>        -0.6100
     20 C20       -14.7517   -1.3774   57.2223 C.3     1  <0>         0.0900
     21 C21       -15.9110   -2.1480   57.8885 C.3     1  <0>        -0.1300
     22 C22       -15.1767   -3.1057   58.8637 C.3     1  <0>        -0.1400
     23 C23       -13.9012   -3.4540   58.0525 C.3     1  <0>         0.1000
     24 N24        -9.2059   -0.7862   57.6661 N.2     1  <0>        -0.5600
     25 C25        -8.5835    0.4217   55.1314 C.ar    1  <0>        -0.0500
     26 C26        -8.0996    0.8785   53.9227 C.ar    1  <0>        -0.1300
     27 H27        -6.9780    3.1464   52.2968 H       1  <0>         0.0800
     28 H28        -5.4050    2.3879   52.6412 H       1  <0>         0.0700
     29 H29        -6.6714    1.4662   51.7956 H       1  <0>         0.0700
     30 H30        -5.5441    2.7887   55.0294 H       1  <0>         0.1300
     31 H31        -6.3969    1.9934   57.1952 H       1  <0>         0.1300
     32 H32        -8.0983    2.0247   61.4888 H       1  <0>         0.1800
     33 H33       -10.3176   -1.5053   61.6359 H       1  <0>         0.4400
     34 H34       -10.3331   -2.5354   56.4796 H       1  <0>         0.1400
     35 H35       -11.4757   -3.8336   56.9007 H       1  <0>         0.1400
     36 H36       -14.6075   -0.4197   57.7223 H       1  <0>         0.0800
     37 H37       -14.9712   -1.2175   56.1666 H       1  <0>         0.0800
     38 H38       -16.5631   -1.4666   58.4351 H       1  <0>         0.0900
     39 H39       -16.4760   -2.7120   57.1464 H       1  <0>         0.0800
     40 H40       -14.9251   -2.5977   59.7947 H       1  <0>         0.0800
     41 H41       -15.7713   -3.9987   59.0561 H       1  <0>         0.0900
     42 H42       -14.1140   -4.2432   57.3314 H       1  <0>         0.0800
     43 H43       -13.0968   -3.7579   58.7223 H       1  <0>         0.0800
     44 H44        -9.4353   -0.2418   55.1573 H       1  <0>         0.1400
     45 H45        -8.5712    0.5690   53.0018 H       1  <0>         0.1300
@<TRIPOS>BOND
     1     1     2    1
     2     1    27    1
     3     1    28    1
     4     1    29    1
     5     2    26   ar
     6     2     3   ar
     7     3     4   ar
     8     3    30    1
     9     4     5   ar
    10     4    31    1
    11     5     6    1
    12     5    25   ar
    13     6    24    1
    14     6     7    2
    15     7     8    1
    16     8    13    1
    17     8     9    2
    18     9    10    1
    19     9    32    1
    20    10    11    2
    21    10    12   am
    22    12    13    1
    23    12    33    1
    24    13    14    1
    25    14    15    1
    26    14    24    2
    27    15    16    1
    28    16    17    1
    29    16    34    1
    30    16    35    1
    31    17    18    2
    32    17    19   am
    33    19    23    1
    34    19    20    1
    35    20    21    1
    36    20    36    1
    37    20    37    1
    38    21    22    1
    39    21    38    1
    40    21    39    1
    41    22    23    1
    42    22    40    1
    43    22    41    1
    44    23    42    1
    45    23    43    1
    46    25    26   ar
    47    25    44    1
    48    26    45    1
@<TRIPOS>SUBSTRUCTURE
     1 <0>         1 TEMP              0 ****  ****    0 ROOT


##########                                Name:    ZINC000373715094
##########                DOCK_Rotatable_Bonds:                   6
##########                         Heavy_Atoms:                  27
##########                    Molecular_Weight:             362.431
##########                DOCK_Rotatable_Bonds:                   6
##########                       Formal_Charge:           0.0299999
##########                     HBond_Acceptors:                   6
##########                        HBond_Donors:                   2
##########                         Heavy_Atoms:                  27
##########                          Grid_Score:          -30.315182
##########                     Grid_vdw_energy:          -29.006878
##########                      Grid_es_energy:           -1.308303
##########           Internal_energy_repulsive:           12.478947

@<TRIPOS>MOLECULE
ZINC000373715094
 49 52 1 0 0
SMALL
USER_CHARGES


@<TRIPOS>ATOM
      1 C1        -11.1607    1.7339   58.3487 C.3     1  ZINC000373715094    0.0900
      2 N2        -11.2119    0.3102   58.6904 N.am    1  ZINC000373715094   -0.6100
      3 C3        -12.3181   -0.4494   58.6118 C.2     1  ZINC000373715094    0.5200
      4 O4        -13.4084   -0.0540   58.2569 O.2     1  ZINC000373715094   -0.5200
      5 C5        -12.0052   -1.8692   59.0300 C.3     1  ZINC000373715094   -0.1600
      6 C6        -10.4621   -1.9499   58.9728 C.3     1  ZINC000373715094   -0.1000
      7 H7        -10.0735   -2.5661   59.7835 H       1  ZINC000373715094    0.1100
      8 C8         -9.9912   -2.4755   57.6152 C.3     1  ZINC000373715094    0.1300
      9 N9        -10.3018   -1.4909   56.5759 N.am    1  ZINC000373715094   -0.7300
     10 C10       -10.2916   -1.8548   55.2782 C.2     1  ZINC000373715094    0.5200
     11 O11       -10.0265   -2.9978   54.9711 O.2     1  ZINC000373715094   -0.5200
     12 C12       -10.6094   -0.8415   54.2090 C.3     1  ZINC000373715094   -0.0600
     13 C13        -9.3982   -0.6357   53.3363 C.2     1  ZINC000373715094    0.1200
     14 N14        -9.1100   -1.3004   52.2540 N.2     1  ZINC000373715094   -0.2300
     15 N15        -7.9089   -0.8346   51.7093 N.pl3   1  ZINC000373715094   -0.5100
     16 C16        -7.4223    0.1763   52.4964 C.ar    1  ZINC000373715094    0.1300
     17 C17        -6.2910    0.9858   52.4371 C.ar    1  ZINC000373715094   -0.1400
     18 C18        -6.0804    1.9318   53.4002 C.ar    1  ZINC000373715094   -0.0700
     19 C19        -6.9826    2.0984   54.4434 C.ar    1  ZINC000373715094   -0.1600
     20 C20        -8.1003    1.3194   54.5273 C.ar    1  ZINC000373715094   -0.0400
     21 C21        -8.3418    0.3484   53.5496 C.ar    1  ZINC000373715094   -0.1600
     22 C22       -10.0605   -0.4714   59.1566 C.3     1  ZINC000373715094    0.1800
     23 H23        -9.1775   -0.2434   58.5597 H       1  ZINC000373715094    0.1000
     24 C24        -9.7954   -0.1801   60.6112 C.ar    1  ZINC000373715094   -0.1000
     25 C25       -10.8099    0.3052   61.4150 C.ar    1  ZINC000373715094   -0.1000
     26 C26       -10.5666    0.5724   62.7493 C.ar    1  ZINC000373715094   -0.1200
     27 C27        -9.3089    0.3540   63.2798 C.ar    1  ZINC000373715094   -0.1100
     28 C28        -8.2947   -0.1321   62.4762 C.ar    1  ZINC000373715094   -0.1200
     29 C29        -8.5391   -0.4034   61.1431 C.ar    1  ZINC000373715094   -0.1100
     30 H30       -10.9185    1.8454   57.2918 H       1  ZINC000373715094    0.0600
     31 H31       -12.1298    2.1909   58.5495 H       1  ZINC000373715094    0.0800
     32 H32       -10.3959    2.2247   58.9506 H       1  ZINC000373715094    0.0700
     33 H33       -12.3597   -2.0551   60.0437 H       1  ZINC000373715094    0.1100
     34 H34       -12.4504   -2.5790   58.3329 H       1  ZINC000373715094    0.1100
     35 H35        -8.9149   -2.6452   57.6449 H       1  ZINC000373715094    0.0700
     36 H36       -10.5008   -3.4127   57.3919 H       1  ZINC000373715094    0.0800
     37 H37       -10.5150   -0.5771   56.8217 H       1  ZINC000373715094    0.4000
     38 H38       -11.4384   -1.2030   53.6007 H       1  ZINC000373715094    0.1200
     39 H39       -10.8861    0.1040   54.6753 H       1  ZINC000373715094    0.1200
     40 H40        -7.4876   -1.1730   50.9038 H       1  ZINC000373715094    0.4400
     41 H41        -5.5813    0.8660   51.6318 H       1  ZINC000373715094    0.1300
     42 H42        -5.2014    2.5574   53.3501 H       1  ZINC000373715094    0.1300
     43 H43        -6.7977    2.8514   55.1953 H       1  ZINC000373715094    0.1300
     44 H44        -8.7969    1.4552   55.3414 H       1  ZINC000373715094    0.1300
     45 H45       -11.7924    0.4758   61.0005 H       1  ZINC000373715094    0.1200
     46 H46       -11.3591    0.9522   63.3772 H       1  ZINC000373715094    0.1200
     47 H47        -9.1187    0.5635   64.3222 H       1  ZINC000373715094    0.1200
     48 H48        -7.3121   -0.3024   62.8907 H       1  ZINC000373715094    0.1300
     49 H49        -7.7467   -0.7832   60.5152 H       1  ZINC000373715094    0.1300
@<TRIPOS>BOND
     1     1     2    1
     2     1    30    1
     3     1    31    1
     4     1    32    1
     5     2    22    1
     6     2     3   am
     7     3     4    2
     8     3     5    1
     9     5     6    1
    10     5    33    1
    11     5    34    1
    12     6     7    1
    13     6     8    1
    14     6    22    1
    15     8     9    1
    16     8    35    1
    17     8    36    1
    18     9    10   am
    19     9    37    1
    20    10    11    2
    21    10    12    1
    22    12    13    1
    23    12    38    1
    24    12    39    1
    25    13    21    1
    26    13    14    2
    27    14    15    1
    28    15    16    1
    29    15    40    1
    30    16    21   ar
    31    16    17   ar
    32    17    18   ar
    33    17    41    1
    34    18    19   ar
    35    18    42    1
    36    19    20   ar
    37    19    43    1
    38    20    21   ar
    39    20    44    1
    40    22    23    1
    41    22    24    1
    42    24    29   ar
    43    24    25   ar
    44    25    26   ar
    45    25    45    1
    46    26    27   ar
    47    26    46    1
    48    27    28   ar
    49    27    47    1
    50    28    29   ar
    51    28    48    1
    52    29    49    1
@<TRIPOS>SUBSTRUCTURE
     1 ZINC000373715094        1 TEMP              0 ****  ****    0 ROOT


##########                                Name:    ZINC000077537368
##########                DOCK_Rotatable_Bonds:                   5
##########                         Heavy_Atoms:                  27
##########                    Molecular_Weight:             365.478
##########                DOCK_Rotatable_Bonds:                   5
##########                       Formal_Charge:          -0.0400007
##########                     HBond_Acceptors:                   6
##########                        HBond_Donors:                   0
##########                         Heavy_Atoms:                  27
##########                          Grid_Score:          -30.273190
##########                     Grid_vdw_energy:          -29.354721
##########                      Grid_es_energy:           -0.918469
##########           Internal_energy_repulsive:           12.002274

@<TRIPOS>MOLECULE
ZINC000077537368
 54 56 1 0 0
SMALL
USER_CHARGES


@<TRIPOS>ATOM
      1 C1        -13.8732   -0.5242   60.3694 C.3     1  ZINC000077537368    0.0800
      2 N2        -12.5961   -0.0663   60.9221 N.pl3   1  ZINC000077537368   -0.2600
      3 N3        -12.4557    0.8930   61.7648 N.2     1  ZINC000077537368   -0.2700
      4 C4        -11.1950    1.0658   62.0702 C.2     1  ZINC000077537368    0.0400
      5 C5        -10.6463    2.0951   63.0245 C.3     1  ZINC000077537368    0.0200
      6 C6         -9.4902    1.4870   63.8211 C.3     1  ZINC000077537368   -0.1400
      7 C7        -10.1412    3.3044   62.2350 C.3     1  ZINC000077537368   -0.1400
      8 C8        -11.7505    2.5389   63.9862 C.3     1  ZINC000077537368   -0.1400
      9 C9        -10.4483    0.1266   61.3554 C.2     1  ZINC000077537368   -0.2000
     10 C10       -11.3736   -0.5982   60.6246 C.2     1  ZINC000077537368   -0.0400
     11 C11       -11.0955   -1.7125   59.7045 C.2     1  ZINC000077537368    0.5900
     12 O12       -11.4194   -2.8454   60.0060 O.2     1  ZINC000077537368   -0.5400
     13 N13       -10.4817   -1.4776   58.5278 N.am    1  ZINC000077537368   -0.6000
     14 C14       -10.1996   -2.5757   57.5910 C.3     1  ZINC000077537368    0.0800
     15 C15       -10.7338   -2.1857   56.2087 C.3     1  ZINC000077537368    0.0400
     16 N16       -10.1783   -0.8817   55.8226 N.3     1  ZINC000077537368   -0.5300
     17 C17       -10.5277   -0.5507   54.4347 C.3     1  ZINC000077537368    0.0900
     18 C18        -9.3055   -0.0382   53.7175 C.ar    1  ZINC000077537368   -0.0500
     19 C19        -8.8519    1.2462   53.9613 C.ar    1  ZINC000077537368   -0.1200
     20 C20        -7.7340    1.7218   53.3080 C.ar    1  ZINC000077537368   -0.0700
     21 C21        -7.0595    0.9039   52.3993 C.ar    1  ZINC000077537368   -0.0300
     22 C22        -5.8980    1.3909   51.7179 C.1     1  ZINC000077537368    0.2500
     23 N23        -4.9766    1.7773   51.1772 N.1     1  ZINC000077537368   -0.4100
     24 C24        -7.5224   -0.3913   52.1584 C.ar    1  ZINC000077537368   -0.0700
     25 C25        -8.6385   -0.8560   52.8227 C.ar    1  ZINC000077537368   -0.1000
     26 C26       -10.6152    0.1771   56.7424 C.3     1  ZINC000077537368    0.0400
     27 C27       -10.0816   -0.1153   58.1438 C.3     1  ZINC000077537368    0.1200
     28 H28       -14.2393   -1.3693   60.9524 H       1  ZINC000077537368    0.0800
     29 H29       -14.5992    0.2878   60.4112 H       1  ZINC000077537368    0.1000
     30 H30       -13.7314   -0.8316   59.3334 H       1  ZINC000077537368    0.1100
     31 H31        -8.7036    1.1708   63.1359 H       1  ZINC000077537368    0.0600
     32 H32        -9.0933    2.2315   64.5112 H       1  ZINC000077537368    0.0600
     33 H33        -9.8501    0.6255   64.3835 H       1  ZINC000077537368    0.0600
     34 H34       -10.9648    3.7376   61.6675 H       1  ZINC000077537368    0.0600
     35 H35        -9.7443    4.0490   62.9252 H       1  ZINC000077537368    0.0600
     36 H36        -9.3546    2.9883   61.5498 H       1  ZINC000077537368    0.0600
     37 H37       -12.1104    1.6774   64.5486 H       1  ZINC000077537368    0.0600
     38 H38       -11.3536    3.2834   64.6763 H       1  ZINC000077537368    0.0600
     39 H39       -12.5741    2.9722   63.4186 H       1  ZINC000077537368    0.0600
     40 H40        -9.3768   -0.0080   61.3721 H       1  ZINC000077537368    0.1700
     41 H41        -9.1238   -2.7415   57.5343 H       1  ZINC000077537368    0.0800
     42 H42       -10.6956   -3.4845   57.9321 H       1  ZINC000077537368    0.1200
     43 H43       -10.4368   -2.9382   55.4783 H       1  ZINC000077537368    0.0900
     44 H44       -11.8214   -2.1216   56.2438 H       1  ZINC000077537368    0.0400
     45 H45       -10.8972   -1.4434   53.9303 H       1  ZINC000077537368    0.0900
     46 H46       -11.3015    0.2170   54.4281 H       1  ZINC000077537368    0.0500
     47 H47        -9.3746    1.8778   54.6644 H       1  ZINC000077537368    0.1300
     48 H48        -7.3814    2.7247   53.4986 H       1  ZINC000077537368    0.1300
     49 H49        -7.0053   -1.0291   51.4569 H       1  ZINC000077537368    0.1300
     50 H50        -8.9975   -1.8576   52.6376 H       1  ZINC000077537368    0.1400
     51 H51       -10.2321    1.1380   56.3991 H       1  ZINC000077537368    0.1000
     52 H52       -11.7043    0.2082   56.7701 H       1  ZINC000077537368    0.0400
     53 H53       -10.4967    0.6029   58.8508 H       1  ZINC000077537368    0.1000
     54 H54        -8.9938   -0.0460   58.1433 H       1  ZINC000077537368    0.0800
@<TRIPOS>BOND
     1     1     2    1
     2     1    28    1
     3     1    29    1
     4     1    30    1
     5     2    10    1
     6     2     3    1
     7     3     4    2
     8     4     5    1
     9     4     9    1
    10     5     6    1
    11     5     7    1
    12     5     8    1
    13     6    31    1
    14     6    32    1
    15     6    33    1
    16     7    34    1
    17     7    35    1
    18     7    36    1
    19     8    37    1
    20     8    38    1
    21     8    39    1
    22     9    10    2
    23     9    40    1
    24    10    11    1
    25    11    12    2
    26    11    13   am
    27    13    27    1
    28    13    14    1
    29    14    15    1
    30    14    41    1
    31    14    42    1
    32    15    16    1
    33    15    43    1
    34    15    44    1
    35    16    17    1
    36    16    26    1
    37    17    18    1
    38    17    45    1
    39    17    46    1
    40    18    25   ar
    41    18    19   ar
    42    19    20   ar
    43    19    47    1
    44    20    21   ar
    45    20    48    1
    46    21    22    1
    47    21    24   ar
    48    22    23    3
    49    24    25   ar
    50    24    49    1
    51    25    50    1
    52    26    27    1
    53    26    51    1
    54    26    52    1
    55    27    53    1
    56    27    54    1
@<TRIPOS>SUBSTRUCTURE
     1 ZINC000077537368        1 TEMP              0 ****  ****    0 ROOT


##########                                Name:    ZINC001070580102
##########                DOCK_Rotatable_Bonds:                   8
##########                         Heavy_Atoms:                  25
##########                    Molecular_Weight:              349.39
##########                DOCK_Rotatable_Bonds:                   8
##########                       Formal_Charge:          -0.0100003
##########                     HBond_Acceptors:                   9
##########                        HBond_Donors:                   3
##########                         Heavy_Atoms:                  25
##########                          Grid_Score:          -30.264891
##########                     Grid_vdw_energy:          -28.932446
##########                      Grid_es_energy:           -1.332446
##########           Internal_energy_repulsive:           11.700687

@<TRIPOS>MOLECULE
ZINC001070580102
 48 50 1 0 0
SMALL
USER_CHARGES


@<TRIPOS>ATOM
      1 C1         -8.7712   -0.3615   61.3560 C.3     1  ZINC001070580102   -0.0800
      2 C2         -9.7267   -0.8264   60.2875 C.2     1  ZINC001070580102   -0.0100
      3 C3         -9.5006   -0.7753   58.9659 C.2     1  ZINC001070580102   -0.1900
      4 C4        -10.7018   -1.3343   58.3284 C.2     1  ZINC001070580102   -0.2500
      5 C5        -10.9493   -1.4997   56.8850 C.2     1  ZINC001070580102    0.6000
      6 O6        -11.9494   -2.0756   56.5017 O.2     1  ZINC001070580102   -0.5300
      7 N7        -10.0673   -1.0124   55.9899 N.am    1  ZINC001070580102   -0.7200
      8 C8        -10.3126   -1.1784   54.5552 C.3     1  ZINC001070580102    0.2000
      9 C9         -9.8312    0.0450   53.8184 C.2     1  ZINC001070580102    0.2600
     10 N10        -8.5919    0.3062   53.4902 N.2     1  ZINC001070580102   -0.5100
     11 C11        -8.5306    1.4719   52.8479 C.2     1  ZINC001070580102    0.2300
     12 C12        -7.2758    2.1110   52.3113 C.3     1  ZINC001070580102    0.1400
     13 H13        -7.5043    3.1128   51.9477 H       1  ZINC001070580102    0.0800
     14 C14        -6.7218    1.2642   51.1624 C.3     1  ZINC001070580102    0.0800
     15 O15        -5.4917    1.8340   50.7069 O.3     1  ZINC001070580102   -0.3800
     16 C16        -4.4899    1.9290   51.7232 C.3     1  ZINC001070580102    0.0600
     17 C17        -5.0213    2.7825   52.8777 C.3     1  ZINC001070580102    0.0200
     18 N18        -6.2711    2.1946   53.3813 N.3     1  ZINC001070580102   -0.5200
     19 C19        -6.7849    2.9537   54.5293 C.3     1  ZINC001070580102    0.0600
     20 C20        -6.6534    2.1098   55.7988 C.3     1  ZINC001070580102    0.0800
     21 O21        -7.0380    2.8909   56.9319 O.3     1  ZINC001070580102   -0.5700
     22 N22        -9.7354    1.9709   52.7579 N.2     1  ZINC001070580102   -0.2700
     23 N23       -10.6010    1.0555   53.3786 N.pl3   1  ZINC001070580102   -0.4700
     24 C24       -11.5389   -1.6687   59.3523 C.2     1  ZINC001070580102    0.0900
     25 C25       -12.9069   -2.2839   59.2073 C.3     1  ZINC001070580102   -0.0900
     26 O26       -10.9374   -1.3629   60.5060 O.3     1  ZINC001070580102   -0.1700
     27 H27        -9.2149   -0.5276   62.3376 H       1  ZINC001070580102    0.0800
     28 H28        -7.8394   -0.9218   61.2790 H       1  ZINC001070580102    0.0900
     29 H29        -8.5679    0.7012   61.2243 H       1  ZINC001070580102    0.0900
     30 H30        -8.6169   -0.4000   58.4713 H       1  ZINC001070580102    0.1500
     31 H31        -9.2702   -0.5520   56.2956 H       1  ZINC001070580102    0.4000
     32 H32        -9.7751   -2.0551   54.1937 H       1  ZINC001070580102    0.1000
     33 H33       -11.3806   -1.3100   54.3819 H       1  ZINC001070580102    0.1100
     34 H34        -6.5442    0.2474   51.5125 H       1  ZINC001070580102    0.0700
     35 H35        -7.4406    1.2475   50.3431 H       1  ZINC001070580102    0.1000
     36 H36        -4.2475    0.9315   52.0896 H       1  ZINC001070580102    0.0600
     37 H37        -3.5946    2.3930   51.3095 H       1  ZINC001070580102    0.1000
     38 H38        -4.2832    2.8104   53.6794 H       1  ZINC001070580102    0.1200
     39 H39        -5.2132    3.7953   52.5233 H       1  ZINC001070580102    0.0400
     40 H40        -6.2108    3.8731   54.6432 H       1  ZINC001070580102    0.0500
     41 H41        -7.8339    3.1985   54.3629 H       1  ZINC001070580102    0.0800
     42 H42        -7.3008    1.2362   55.7230 H       1  ZINC001070580102    0.0500
     43 H43        -5.6189    1.7864   55.9145 H       1  ZINC001070580102    0.0600
     44 H44        -6.3901    3.5628   57.1847 H       1  ZINC001070580102    0.3800
     45 H45       -11.5625    1.1389   53.4761 H       1  ZINC001070580102    0.4400
     46 H46       -12.8186   -3.3703   59.2080 H       1  ZINC001070580102    0.0900
     47 H47       -13.5365   -1.9701   60.0400 H       1  ZINC001070580102    0.0800
     48 H48       -13.3551   -1.9562   58.2694 H       1  ZINC001070580102    0.1100
@<TRIPOS>BOND
     1     1     2    1
     2     1    27    1
     3     1    28    1
     4     1    29    1
     5     2    26    1
     6     2     3    2
     7     3     4    1
     8     3    30    1
     9     4     5    1
    10     4    24    2
    11     5     6    2
    12     5     7   am
    13     7     8    1
    14     7    31    1
    15     8     9    1
    16     8    32    1
    17     8    33    1
    18     9    23    1
    19     9    10    2
    20    10    11    1
    21    11    12    1
    22    11    22    2
    23    12    13    1
    24    12    18    1
    25    12    14    1
    26    14    15    1
    27    14    34    1
    28    14    35    1
    29    15    16    1
    30    16    17    1
    31    16    36    1
    32    16    37    1
    33    17    18    1
    34    17    38    1
    35    17    39    1
    36    18    19    1
    37    19    20    1
    38    19    40    1
    39    19    41    1
    40    20    21    1
    41    20    42    1
    42    20    43    1
    43    21    44    1
    44    22    23    1
    45    23    45    1
    46    24    25    1
    47    24    26    1
    48    25    46    1
    49    25    47    1
    50    25    48    1
@<TRIPOS>SUBSTRUCTURE
     1 ZINC001070580102        1 TEMP              0 ****  ****    0 ROOT


##########                                Name:    ZINC000460163972
##########                DOCK_Rotatable_Bonds:                   7
##########                         Heavy_Atoms:                  28
##########                    Molecular_Weight:             408.469
##########                DOCK_Rotatable_Bonds:                   7
##########                       Formal_Charge:          -0.0100001
##########                     HBond_Acceptors:                   8
##########                        HBond_Donors:                   2
##########                         Heavy_Atoms:                  28
##########                          Grid_Score:          -30.258841
##########                     Grid_vdw_energy:          -30.405756
##########                      Grid_es_energy:            0.146915
##########           Internal_energy_repulsive:           54.698807

@<TRIPOS>MOLECULE
ZINC000460163972
 50 52 1 0 0
SMALL
USER_CHARGES


@<TRIPOS>ATOM
      1 C1        -11.2561   -2.3179   60.1316 C.3     1  ZINC000460163972   -0.1400
      2 C2        -11.1729   -1.5365   58.8457 C.ar    1  ZINC000460163972    0.0100
      3 C3        -12.2731   -1.4617   58.0117 C.ar    1  ZINC000460163972   -0.1300
      4 C4        -12.2002   -0.7462   56.8323 C.ar    1  ZINC000460163972   -0.0600
      5 C5        -11.0206   -0.1015   56.4850 C.ar    1  ZINC000460163972    0.1100
      6 N6        -10.9436    0.6244   55.2912 N.am    1  ZINC000460163972   -0.6700
      7 C7        -10.5398    0.0168   54.1579 C.2     1  ZINC000460163972    0.5200
      8 O8        -10.2432   -1.1592   54.1728 O.2     1  ZINC000460163972   -0.5100
      9 C9        -10.4568    0.7986   52.8722 C.3     1  ZINC000460163972   -0.0700
     10 H10       -10.9144    0.2236   52.0672 H       1  ZINC000460163972    0.1200
     11 C11       -11.1975    2.1274   53.0346 C.3     1  ZINC000460163972   -0.1500
     12 C12        -9.0116    1.0663   52.5396 C.ar    1  ZINC000460163972   -0.0600
     13 C13        -8.1220    0.0142   52.4302 C.ar    1  ZINC000460163972   -0.0700
     14 C14        -6.7956    0.2573   52.1253 C.ar    1  ZINC000460163972   -0.1200
     15 C15        -6.3575    1.5551   51.9287 C.ar    1  ZINC000460163972    0.0700
     16 F16        -5.0617    1.7935   51.6301 F       1  ZINC000460163972   -0.1300
     17 C17        -7.2503    2.6108   52.0379 C.ar    1  ZINC000460163972    0.0700
     18 F18        -6.8250    3.8787   51.8464 F       1  ZINC000460163972   -0.1300
     19 C19        -8.5782    2.3637   52.3385 C.ar    1  ZINC000460163972   -0.1200
     20 C20        -9.9173   -0.1783   57.3252 C.ar    1  ZINC000460163972    0.0000
     21 C21        -8.6351    0.5204   56.9523 C.3     1  ZINC000460163972   -0.1500
     22 C22        -9.9981   -0.8911   58.5051 C.ar    1  ZINC000460163972   -0.6700
     23 S23        -8.5993   -0.9885   59.5720 S.o2    1  ZINC000460163972    2.7000
     24 O24        -8.0730   -2.3002   59.4250 O.2     1  ZINC000460163972   -0.9500
     25 O25        -7.8346    0.1863   59.3394 O.2     1  ZINC000460163972   -0.9500
     26 N26        -9.1601   -0.8813   61.1265 N.am    1  ZINC000460163972   -1.0900
     27 C27        -9.8972    0.3086   61.5588 C.3     1  ZINC000460163972    0.0800
     28 C28        -9.8155    0.6915   63.0380 C.3     1  ZINC000460163972   -0.1800
     29 C29        -9.0798    1.5282   61.9894 C.3     1  ZINC000460163972   -0.1900
     30 H30       -11.4977   -1.6424   60.9523 H       1  ZINC000460163972    0.1000
     31 H31       -12.0329   -3.0776   60.0456 H       1  ZINC000460163972    0.0800
     32 H32       -10.2976   -2.7987   60.3271 H       1  ZINC000460163972    0.0700
     33 H33       -13.1904   -1.9633   58.2824 H       1  ZINC000460163972    0.1400
     34 H34       -13.0598   -0.6887   56.1809 H       1  ZINC000460163972    0.1600
     35 H35       -11.1807    1.5648   55.2792 H       1  ZINC000460163972    0.4100
     36 H36       -11.1375    2.6928   52.1047 H       1  ZINC000460163972    0.0800
     37 H37       -12.2429    1.9337   53.2753 H       1  ZINC000460163972    0.0700
     38 H38       -10.7400    2.7024   53.8396 H       1  ZINC000460163972    0.0700
     39 H39        -8.4633   -0.9989   52.5837 H       1  ZINC000460163972    0.1400
     40 H40        -6.1013   -0.5656   52.0408 H       1  ZINC000460163972    0.1500
     41 H41        -9.2745    3.1850   52.4235 H       1  ZINC000460163972    0.1500
     42 H42        -8.5890    1.4871   57.4538 H       1  ZINC000460163972    0.1000
     43 H43        -7.7860   -0.0897   57.2604 H       1  ZINC000460163972    0.1000
     44 H44        -8.6030    0.6692   55.8729 H       1  ZINC000460163972    0.0700
     45 H45        -9.0005   -1.6065   61.7507 H       1  ZINC000460163972    0.4200
     46 H46       -10.8397    0.4911   61.0428 H       1  ZINC000460163972    0.1300
     47 H47       -10.7045    1.1259   63.4952 H       1  ZINC000460163972    0.1100
     48 H48        -9.2134    0.0580   63.6893 H       1  ZINC000460163972    0.1000
     49 H49        -7.9936    1.4452   61.9509 H       1  ZINC000460163972    0.1000
     50 H50        -9.4848    2.5131   61.7568 H       1  ZINC000460163972    0.1000
@<TRIPOS>BOND
     1     1     2    1
     2     1    30    1
     3     1    31    1
     4     1    32    1
     5     2    22   ar
     6     2     3   ar
     7     3     4   ar
     8     3    33    1
     9     4     5   ar
    10     4    34    1
    11     5     6    1
    12     5    20   ar
    13     6     7   am
    14     6    35    1
    15     7     8    2
    16     7     9    1
    17     9    10    1
    18     9    11    1
    19     9    12    1
    20    11    36    1
    21    11    37    1
    22    11    38    1
    23    12    19   ar
    24    12    13   ar
    25    13    14   ar
    26    13    39    1
    27    14    15   ar
    28    14    40    1
    29    15    16    1
    30    15    17   ar
    31    17    18    1
    32    17    19   ar
    33    19    41    1
    34    20    21    1
    35    20    22   ar
    36    21    42    1
    37    21    43    1
    38    21    44    1
    39    22    23    1
    40    23    24    2
    41    23    25    2
    42    23    26   am
    43    26    27    1
    44    26    45    1
    45    27    29    1
    46    27    28    1
    47    27    46    1
    48    28    29    1
    49    28    47    1
    50    28    48    1
    51    29    49    1
    52    29    50    1
@<TRIPOS>SUBSTRUCTURE
     1 ZINC000460163972        1 TEMP              0 ****  ****    0 ROOT


##########                                Name:    ZINC000995593866
##########                DOCK_Rotatable_Bonds:                   7
##########                         Heavy_Atoms:                  24
##########                    Molecular_Weight:             342.389
##########                DOCK_Rotatable_Bonds:                   7
##########                       Formal_Charge:                0.03
##########                     HBond_Acceptors:                   8
##########                        HBond_Donors:                   1
##########                         Heavy_Atoms:                  24
##########                          Grid_Score:          -30.248421
##########                     Grid_vdw_energy:          -28.630596
##########                      Grid_es_energy:           -1.617825
##########           Internal_energy_repulsive:            8.945415

@<TRIPOS>MOLECULE
ZINC000995593866
 48 50 1 0 0
SMALL
USER_CHARGES


@<TRIPOS>ATOM
      1 C1         -6.4637    2.2471   57.5197 C.3     1  ZINC000995593866   -0.1400
      2 C2         -7.9325    2.2148   57.9472 C.3     1  ZINC000995593866   -0.0800
      3 C3         -8.2512    3.4134   58.8431 C.3     1  ZINC000995593866   -0.1400
      4 C4         -8.8524    2.2090   56.7073 C.3     1  ZINC000995593866    0.1200
      5 N5         -9.1480    0.7772   56.4679 N.am    1  ZINC000995593866   -0.6300
      6 C6         -9.2318    0.1369   55.2849 C.2     1  ZINC000995593866    0.5400
      7 O7         -9.4828   -1.0493   55.2539 O.2     1  ZINC000995593866   -0.5300
      8 C8         -9.0136    0.8948   54.0008 C.3     1  ZINC000995593866   -0.1300
      9 C9         -7.5135    0.9961   53.7171 C.3     1  ZINC000995593866   -0.1000
     10 C10        -7.0747    0.2470   52.4477 C.3     1  ZINC000995593866   -0.1300
     11 C11        -6.1415    1.4357   52.1636 C.3     1  ZINC000995593866   -0.1400
     12 C12        -7.1091    2.2930   52.9964 C.3     1  ZINC000995593866   -0.1400
     13 C13        -9.3308    0.2091   57.8238 C.3     1  ZINC000995593866    0.1100
     14 C14        -8.2479    0.8961   58.6834 C.3     1  ZINC000995593866    0.0800
     15 H15        -7.3566    0.2714   58.7405 H       1  ZINC000995593866    0.0700
     16 N16        -8.7643    1.1718   60.0307 N.3     1  ZINC000995593866   -0.6800
     17 C17        -8.7736   -0.0471   60.8506 C.3     1  ZINC000995593866    0.1500
     18 C18        -8.9360    0.3249   62.3018 C.2     1  ZINC000995593866    0.1900
     19 N19        -8.3853   -0.2768   63.3286 N.2     1  ZINC000995593866   -0.4300
     20 C20        -8.8103    0.3956   64.4131 C.2     1  ZINC000995593866    0.0900
     21 C21        -8.4547    0.0934   65.8460 C.3     1  ZINC000995593866    0.3800
     22 F22        -9.5593    0.3511   66.6648 F       1  ZINC000995593866   -0.1800
     23 F23        -8.0919   -1.2527   65.9624 F       1  ZINC000995593866   -0.1700
     24 N24        -9.5834    1.3542   63.9982 N.2     1  ZINC000995593866   -0.3400
     25 O25        -9.6641    1.3345   62.7881 O.3     1  ZINC000995593866    0.1000
     26 H26        -6.2612    1.4099   56.8518 H       1  ZINC000995593866    0.0600
     27 H27        -6.2566    3.1835   57.0018 H       1  ZINC000995593866    0.0600
     28 H28        -5.8270    2.1710   58.4012 H       1  ZINC000995593866    0.0600
     29 H29        -8.0481    4.3368   58.3005 H       1  ZINC000995593866    0.0700
     30 H30        -9.3025    3.3839   59.1292 H       1  ZINC000995593866    0.0700
     31 H31        -7.6299    3.3737   59.7378 H       1  ZINC000995593866    0.0600
     32 H32        -9.7714    2.7577   56.9133 H       1  ZINC000995593866    0.0800
     33 H33        -8.3360    2.6391   55.8491 H       1  ZINC000995593866    0.0900
     34 H34        -9.5037    0.3695   53.1811 H       1  ZINC000995593866    0.0900
     35 H35        -9.4342    1.8961   54.0938 H       1  ZINC000995593866    0.0900
     36 H36        -6.9014    0.7730   54.5909 H       1  ZINC000995593866    0.1000
     37 H37        -6.5460   -0.6843   52.6512 H       1  ZINC000995593866    0.0700
     38 H38        -7.8706    0.1310   51.7121 H       1  ZINC000995593866    0.0800
     39 H39        -5.1535    1.3321   52.6119 H       1  ZINC000995593866    0.0800
     40 H40        -6.1026    1.7185   51.1116 H       1  ZINC000995593866    0.0700
     41 H41        -7.9143    2.7365   52.4107 H       1  ZINC000995593866    0.0800
     42 H42        -6.6081    3.0137   53.6428 H       1  ZINC000995593866    0.0700
     43 H43       -10.3246    0.4453   58.2041 H       1  ZINC000995593866    0.0900
     44 H44        -9.1755   -0.8698   57.8079 H       1  ZINC000995593866    0.0800
     45 H45        -8.2344    1.9045   60.4781 H       1  ZINC000995593866    0.3600
     46 H46        -9.6025   -0.6849   60.5440 H       1  ZINC000995593866    0.1200
     47 H47        -7.8339   -0.5827   60.7158 H       1  ZINC000995593866    0.0800
     48 H48        -7.6196    0.7227   66.1537 H       1  ZINC000995593866    0.1500
@<TRIPOS>BOND
     1     1     2    1
     2     1    26    1
     3     1    27    1
     4     1    28    1
     5     2    14    1
     6     2     3    1
     7     2     4    1
     8     3    29    1
     9     3    30    1
    10     3    31    1
    11     4     5    1
    12     4    32    1
    13     4    33    1
    14     5     6   am
    15     5    13    1
    16     6     7    2
    17     6     8    1
    18     8     9    1
    19     8    34    1
    20     8    35    1
    21     9    12    1
    22     9    10    1
    23     9    36    1
    24    10    11    1
    25    10    37    1
    26    10    38    1
    27    11    12    1
    28    11    39    1
    29    11    40    1
    30    12    41    1
    31    12    42    1
    32    13    14    1
    33    13    43    1
    34    13    44    1
    35    14    15    1
    36    14    16    1
    37    16    17    1
    38    16    45    1
    39    17    18    1
    40    17    46    1
    41    17    47    1
    42    18    25    1
    43    18    19    2
    44    19    20    1
    45    20    21    1
    46    20    24    2
    47    21    22    1
    48    21    23    1
    49    21    48    1
    50    24    25    1
@<TRIPOS>SUBSTRUCTURE
     1 ZINC000995593866        1 TEMP              0 ****  ****    0 ROOT


##########                                Name:    ZINC000518234532
##########                DOCK_Rotatable_Bonds:                   5
##########                         Heavy_Atoms:                  25
##########                    Molecular_Weight:             408.267
##########                DOCK_Rotatable_Bonds:                   5
##########                       Formal_Charge:         -0.00999981
##########                     HBond_Acceptors:                   5
##########                        HBond_Donors:                   1
##########                         Heavy_Atoms:                  25
##########                          Grid_Score:          -30.246027
##########                     Grid_vdw_energy:          -29.919014
##########                      Grid_es_energy:           -0.327013
##########           Internal_energy_repulsive:           19.457609

@<TRIPOS>MOLECULE
ZINC000518234532
 44 46 1 0 0
SMALL
USER_CHARGES


@<TRIPOS>ATOM
      1 C1         -8.7123   -2.1963   59.0965 C.3     1  ZINC000518234532   -0.1600
      2 C2         -9.7026   -1.1467   58.5876 C.3     1  ZINC000518234532    0.1800
      3 H3        -10.7209   -1.5075   58.7327 H       1  ZINC000518234532    0.1100
      4 N4         -9.5161    0.1017   59.3312 N.am    1  ZINC000518234532   -0.7300
      5 C5        -10.0838    0.2548   60.5440 C.2     1  ZINC000518234532    0.5200
      6 O6        -10.7477   -0.6414   61.0203 O.2     1  ZINC000518234532   -0.5200
      7 C7         -9.8935    1.5397   61.3081 C.3     1  ZINC000518234532   -0.0700
      8 H8        -10.8133    2.1235   61.2721 H       1  ZINC000518234532    0.1100
      9 C9         -8.7542    2.3435   60.6785 C.3     1  ZINC000518234532   -0.1400
     10 C10        -9.5538    1.2256   62.7423 C.ar    1  ZINC000518234532   -0.1000
     11 C11       -10.1419    1.9446   63.7653 C.ar    1  ZINC000518234532   -0.0600
     12 C12        -9.8304    1.6567   65.0813 C.ar    1  ZINC000518234532   -0.1300
     13 C13        -8.9301    0.6498   65.3753 C.ar    1  ZINC000518234532   -0.0900
     14 C14        -8.3402   -0.0704   64.3535 C.ar    1  ZINC000518234532   -0.1600
     15 C15        -8.6564    0.2126   63.0358 C.ar    1  ZINC000518234532    0.1000
     16 F16        -8.0804   -0.4907   62.0364 F       1  ZINC000518234532   -0.1400
     17 C17        -9.4618   -0.8985   57.1208 C.ar    1  ZINC000518234532   -0.0600
     18 C18        -8.6415    0.1398   56.7224 C.ar    1  ZINC000518234532   -0.1100
     19 C19        -8.4174    0.3703   55.3732 C.ar    1  ZINC000518234532    0.0800
     20 C20        -9.0179   -0.4470   54.4231 C.ar    1  ZINC000518234532    0.0600
     21 C21        -9.8411   -1.4869   54.8287 C.ar    1  ZINC000518234532   -0.0800
     22 C22       -10.0576   -1.7139   56.1754 C.ar    1  ZINC000518234532   -0.0800
     23 Br23      -11.1797   -3.1332   56.7253 Br      1  ZINC000518234532   -0.0300
     24 O24        -8.8050   -0.2430   53.0943 O.3     1  ZINC000518234532   -0.3000
     25 C25        -8.2760    1.0323   52.7155 C.3     1  ZINC000518234532    0.0200
     26 C26        -7.1099    1.3674   53.6554 C.3     1  ZINC000518234532    0.0200
     27 O27        -7.6101    1.3996   54.9965 O.3     1  ZINC000518234532   -0.3000
     28 H28        -8.8865   -2.3759   60.1574 H       1  ZINC000518234532    0.0700
     29 H29        -8.8511   -3.1250   58.5432 H       1  ZINC000518234532    0.0700
     30 H30        -7.6940   -1.8356   58.9514 H       1  ZINC000518234532    0.0600
     31 H31        -8.9841    0.8180   58.9508 H       1  ZINC000518234532    0.4000
     32 H32        -8.9998    2.5708   59.6411 H       1  ZINC000518234532    0.0700
     33 H33        -8.6164    3.2729   61.2312 H       1  ZINC000518234532    0.0700
     34 H34        -7.8343    1.7597   60.7145 H       1  ZINC000518234532    0.0700
     35 H35       -10.8449    2.7320   63.5368 H       1  ZINC000518234532    0.1300
     36 H36       -10.2906    2.2191   65.8802 H       1  ZINC000518234532    0.1300
     37 H37        -8.6873    0.4260   66.4035 H       1  ZINC000518234532    0.1300
     38 H38        -7.6363   -0.8566   64.5834 H       1  ZINC000518234532    0.1400
     39 H39        -8.1746    0.7729   57.4625 H       1  ZINC000518234532    0.1400
     40 H40       -10.3107   -2.1221   54.0923 H       1  ZINC000518234532    0.1500
     41 H41        -7.9186    0.9912   51.6866 H       1  ZINC000518234532    0.1300
     42 H42        -9.0511    1.7933   52.8057 H       1  ZINC000518234532    0.0800
     43 H43        -6.3374    0.6032   53.5696 H       1  ZINC000518234532    0.0800
     44 H44        -6.6953    2.3409   53.3941 H       1  ZINC000518234532    0.1300
@<TRIPOS>BOND
     1     1     2    1
     2     1    28    1
     3     1    29    1
     4     1    30    1
     5     2     3    1
     6     2     4    1
     7     2    17    1
     8     4     5   am
     9     4    31    1
    10     5     6    2
    11     5     7    1
    12     7     8    1
    13     7     9    1
    14     7    10    1
    15     9    32    1
    16     9    33    1
    17     9    34    1
    18    10    15   ar
    19    10    11   ar
    20    11    12   ar
    21    11    35    1
    22    12    13   ar
    23    12    36    1
    24    13    14   ar
    25    13    37    1
    26    14    15   ar
    27    14    38    1
    28    15    16    1
    29    17    22   ar
    30    17    18   ar
    31    18    19   ar
    32    18    39    1
    33    19    27    1
    34    19    20   ar
    35    20    21   ar
    36    20    24    1
    37    21    22   ar
    38    21    40    1
    39    22    23    1
    40    24    25    1
    41    25    26    1
    42    25    41    1
    43    25    42    1
    44    26    27    1
    45    26    43    1
    46    26    44    1
@<TRIPOS>SUBSTRUCTURE
     1 ZINC000518234532        1 TEMP              0 ****  ****    0 ROOT


##########                                Name:    ZINC000821214121
##########                DOCK_Rotatable_Bonds:                  10
##########                         Heavy_Atoms:                  23
##########                    Molecular_Weight:             338.434
##########                DOCK_Rotatable_Bonds:                  10
##########                       Formal_Charge:          0.00999954
##########                     HBond_Acceptors:                   9
##########                        HBond_Donors:                   3
##########                         Heavy_Atoms:                  23
##########                          Grid_Score:          -30.244986
##########                     Grid_vdw_energy:          -29.124651
##########                      Grid_es_energy:           -1.120334
##########           Internal_energy_repulsive:            8.718012

@<TRIPOS>MOLECULE
ZINC000821214121
 45 46 1 0 0
SMALL
USER_CHARGES


@<TRIPOS>ATOM
      1 C1         -8.7591    0.0428   61.8839 C.3     1  ZINC000821214121   -0.1500
      2 C2         -9.8263    0.2993   60.8180 C.3     1  ZINC000821214121    0.0500
      3 N3         -9.2017    0.2929   59.4883 N.3     1  ZINC000821214121   -0.5200
      4 C4         -9.8915   -0.6397   58.5871 C.3     1  ZINC000821214121    0.0600
      5 C5         -9.5414   -2.0775   58.9759 C.3     1  ZINC000821214121   -0.1200
      6 C6        -10.1441   -3.0434   57.9537 C.3     1  ZINC000821214121    0.0800
      7 O7         -9.8417   -4.3876   58.3326 O.3     1  ZINC000821214121   -0.5700
      8 C8         -9.1646    1.6460   58.9176 C.3     1  ZINC000821214121    0.0400
      9 C9         -8.2394    1.6644   57.7282 C.2     1  ZINC000821214121    0.5000
     10 O10        -7.0808    1.3283   57.8558 O.2     1  ZINC000821214121   -0.4800
     11 N11        -8.6991    2.0541   56.5228 N.am    1  ZINC000821214121   -0.6300
     12 C12        -7.8439    2.0696   55.4224 C.2     1  ZINC000821214121    0.0800
     13 C13        -7.9996    1.3227   54.2928 C.2     1  ZINC000821214121   -0.1000
     14 C14        -9.1278    0.3810   54.0972 C.2     1  ZINC000821214121    0.2900
     15 N15        -9.3150   -0.7592   54.7369 N.2     1  ZINC000821214121   -0.3300
     16 N16       -10.5047   -1.2990   54.2211 N.pl3   1  ZINC000821214121   -0.2900
     17 N17       -10.9424   -0.4743   53.3322 N.2     1  ZINC000821214121    0.0200
     18 N18       -10.1470    0.5320   53.2444 N.2     1  ZINC000821214121   -0.2900
     19 C19        -7.0034    1.5230   53.3373 C.2     1  ZINC000821214121   -0.0500
     20 C20        -6.9902    0.7952   52.0177 C.3     1  ZINC000821214121   -0.1000
     21 C21        -6.0673    2.4030   53.6760 C.2     1  ZINC000821214121   -0.2400
     22 C22        -4.8929    2.7868   52.8131 C.3     1  ZINC000821214121   -0.0800
     23 S23        -6.3994    3.0611   55.2716 S.3     1  ZINC000821214121    0.2600
     24 H24        -8.2271   -0.8797   61.6508 H       1  ZINC000821214121    0.0700
     25 H25        -8.0546    0.8744   61.9003 H       1  ZINC000821214121    0.0500
     26 H26        -9.2354   -0.0493   62.8600 H       1  ZINC000821214121    0.0600
     27 H27       -10.5842   -0.4825   60.8671 H       1  ZINC000821214121    0.0900
     28 H28       -10.2920    1.2686   60.9960 H       1  ZINC000821214121    0.0400
     29 H29       -10.9686   -0.4935   58.6680 H       1  ZINC000821214121    0.0400
     30 H30        -9.5755   -0.4538   57.5606 H       1  ZINC000821214121    0.0800
     31 H31        -8.4580   -2.1959   58.9928 H       1  ZINC000821214121    0.0800
     32 H32        -9.9462   -2.2955   59.9642 H       1  ZINC000821214121    0.0700
     33 H33       -11.2253   -2.9096   57.9209 H       1  ZINC000821214121    0.0400
     34 H34        -9.7227   -2.8399   56.9693 H       1  ZINC000821214121    0.0500
     35 H35       -10.2104   -4.6476   59.1880 H       1  ZINC000821214121    0.3800
     36 H36       -10.1672    1.9351   58.6025 H       1  ZINC000821214121    0.0700
     37 H37        -8.8036    2.3477   59.6696 H       1  ZINC000821214121    0.1200
     38 H38        -9.6253    2.3240   56.4209 H       1  ZINC000821214121    0.4200
     39 H39       -10.9189   -2.1357   54.4842 H       1  ZINC000821214121    0.4700
     40 H40        -7.5431    1.3742   51.2780 H       1  ZINC000821214121    0.0700
     41 H41        -5.9606    0.6675   51.6836 H       1  ZINC000821214121    0.0700
     42 H42        -7.4573   -0.1823   52.1372 H       1  ZINC000821214121    0.0900
     43 H43        -5.1660    3.6333   52.1833 H       1  ZINC000821214121    0.0700
     44 H44        -4.0506    3.0628   53.4476 H       1  ZINC000821214121    0.0700
     45 H45        -4.6126    1.9417   52.1844 H       1  ZINC000821214121    0.0800
@<TRIPOS>BOND
     1     1     2    1
     2     1    24    1
     3     1    25    1
     4     1    26    1
     5     2     3    1
     6     2    27    1
     7     2    28    1
     8     3     4    1
     9     3     8    1
    10     4     5    1
    11     4    29    1
    12     4    30    1
    13     5     6    1
    14     5    31    1
    15     5    32    1
    16     6     7    1
    17     6    33    1
    18     6    34    1
    19     7    35    1
    20     8     9    1
    21     8    36    1
    22     8    37    1
    23     9    10    2
    24     9    11   am
    25    11    12    1
    26    11    38    1
    27    12    23    1
    28    12    13    2
    29    13    14    1
    30    13    19    1
    31    14    18    1
    32    14    15    2
    33    15    16    1
    34    16    17    1
    35    16    39    1
    36    17    18    2
    37    19    20    1
    38    19    21    2
    39    20    40    1
    40    20    41    1
    41    20    42    1
    42    21    22    1
    43    21    23    1
    44    22    43    1
    45    22    44    1
    46    22    45    1
@<TRIPOS>SUBSTRUCTURE
     1 ZINC000821214121        1 TEMP              0 ****  ****    0 ROOT


##########                                Name:    ZINC000971513996
##########                DOCK_Rotatable_Bonds:                   6
##########                         Heavy_Atoms:                  27
##########                    Molecular_Weight:             369.464
##########                DOCK_Rotatable_Bonds:                   6
##########                       Formal_Charge:          -0.0300002
##########                     HBond_Acceptors:                   6
##########                        HBond_Donors:                   1
##########                         Heavy_Atoms:                  27
##########                          Grid_Score:          -30.224831
##########                     Grid_vdw_energy:          -29.775076
##########                      Grid_es_energy:           -0.449754
##########           Internal_energy_repulsive:           22.103172

@<TRIPOS>MOLECULE
ZINC000971513996
 54 57 1 0 0
SMALL
USER_CHARGES


@<TRIPOS>ATOM
      1 C1        -14.9047   -3.4702   57.6165 C.3     1  ZINC000971513996   -0.1600
      2 C2        -14.2245   -2.1465   57.9716 C.3     1  ZINC000971513996   -0.1400
      3 C3        -13.0045   -2.4205   58.8533 C.3     1  ZINC000971513996    0.0800
      4 H4        -13.3181   -2.9493   59.7533 H       1  ZINC000971513996    0.0800
      5 O5        -12.0662   -3.2218   58.1325 O.3     1  ZINC000971513996   -0.3600
      6 C6        -11.6804   -2.6720   56.8712 C.3     1  ZINC000971513996    0.0200
      7 C7        -12.3588   -1.1142   59.2375 C.2     1  ZINC000971513996    0.5400
      8 O8        -12.8932   -0.0650   58.9468 O.2     1  ZINC000971513996   -0.5100
      9 N9        -11.1875   -1.1118   59.9042 N.am    1  ZINC000971513996   -0.6400
     10 C10       -10.2512   -2.1229   60.4241 C.3     1  ZINC000971513996    0.1000
     11 C11        -9.1264   -1.0881   60.2288 C.3     1  ZINC000971513996   -0.1200
     12 H12        -8.3654   -1.0809   61.0092 H       1  ZINC000971513996    0.1100
     13 C13        -8.5564   -1.1444   58.8093 C.3     1  ZINC000971513996   -0.1200
     14 C14        -8.2323    0.2769   58.3396 C.3     1  ZINC000971513996    0.1100
     15 N15        -9.4633    1.0699   58.3934 N.am    1  ZINC000971513996   -0.6000
     16 C16        -9.9068    1.6922   57.2831 C.2     1  ZINC000971513996    0.5900
     17 O17       -10.9281    2.3518   57.3224 O.2     1  ZINC000971513996   -0.5200
     18 C18        -9.1559    1.5738   56.0242 C.2     1  ZINC000971513996    0.0200
     19 C19        -8.0904    2.3379   55.6679 C.2     1  ZINC000971513996   -0.1000
     20 C20        -7.6592    1.9073   54.3898 C.ar    1  ZINC000971513996   -0.1100
     21 C21        -6.6273    2.3146   53.5349 C.ar    1  ZINC000971513996   -0.0600
     22 C22        -6.4555    1.6914   52.3331 C.ar    1  ZINC000971513996   -0.1200
     23 C23        -5.3442    2.1322   51.4156 C.3     1  ZINC000971513996   -0.1100
     24 C24        -7.2949    0.6540   51.9478 C.ar    1  ZINC000971513996   -0.0800
     25 C25        -8.3166    0.2352   52.7707 C.ar    1  ZINC000971513996   -0.1300
     26 C26        -8.5125    0.8556   54.0012 C.ar    1  ZINC000971513996    0.1100
     27 N27        -9.4176    0.6639   55.0182 N.pl3   1  ZINC000971513996   -0.5800
     28 C28       -10.2120    1.1908   59.6374 C.3     1  ZINC000971513996    0.0700
     29 C29       -10.2673   -0.1025   60.4333 C.3     1  ZINC000971513996    0.1300
     30 H30       -10.4534    0.0914   61.4896 H       1  ZINC000971513996    0.1100
     31 H31       -15.8303   -3.2698   57.0769 H       1  ZINC000971513996    0.0600
     32 H32       -14.2397   -4.0637   56.9891 H       1  ZINC000971513996    0.0600
     33 H33       -15.1288   -4.0203   58.5305 H       1  ZINC000971513996    0.0600
     34 H34       -13.9069   -1.6446   57.0576 H       1  ZINC000971513996    0.0800
     35 H35       -14.9266   -1.5102   58.5104 H       1  ZINC000971513996    0.0800
     36 H36       -12.5426   -2.6519   56.2046 H       1  ZINC000971513996    0.0400
     37 H37       -11.3088   -1.6575   57.0154 H       1  ZINC000971513996    0.0500
     38 H38       -10.8955   -3.2874   56.4315 H       1  ZINC000971513996    0.0900
     39 H39       -10.4269   -2.3827   61.4681 H       1  ZINC000971513996    0.0900
     40 H40       -10.1542   -2.9976   59.7811 H       1  ZINC000971513996    0.0800
     41 H41        -7.6471   -1.7453   58.8056 H       1  ZINC000971513996    0.0900
     42 H42        -9.2914   -1.5905   58.1392 H       1  ZINC000971513996    0.0700
     43 H43        -7.4817    0.7184   58.9952 H       1  ZINC000971513996    0.0800
     44 H44        -7.8571    0.2493   57.3166 H       1  ZINC000971513996    0.1000
     45 H45        -7.6512    3.1314   56.2543 H       1  ZINC000971513996    0.1500
     46 H46        -5.9696    3.1203   53.8258 H       1  ZINC000971513996    0.1200
     47 H47        -4.4425    1.5610   51.6365 H       1  ZINC000971513996    0.0700
     48 H48        -5.6383    1.9608   50.3801 H       1  ZINC000971513996    0.0600
     49 H49        -5.1479    3.1937   51.5666 H       1  ZINC000971513996    0.0600
     50 H50        -7.1452    0.1713   50.9934 H       1  ZINC000971513996    0.1300
     51 H51        -8.9644   -0.5720   52.4621 H       1  ZINC000971513996    0.1200
     52 H52       -10.1245   -0.0002   55.0273 H       1  ZINC000971513996    0.4200
     53 H53        -9.7399    1.9517   60.2588 H       1  ZINC000971513996    0.0800
     54 H54       -11.2281    1.5105   59.4061 H       1  ZINC000971513996    0.1200
@<TRIPOS>BOND
     1     1     2    1
     2     1    31    1
     3     1    32    1
     4     1    33    1
     5     2     3    1
     6     2    34    1
     7     2    35    1
     8     3     4    1
     9     3     5    1
    10     3     7    1
    11     5     6    1
    12     6    36    1
    13     6    37    1
    14     6    38    1
    15     7     8    2
    16     7     9   am
    17     9    29    1
    18     9    10    1
    19    10    11    1
    20    10    39    1
    21    10    40    1
    22    11    12    1
    23    11    29    1
    24    11    13    1
    25    13    14    1
    26    13    41    1
    27    13    42    1
    28    14    15    1
    29    14    43    1
    30    14    44    1
    31    15    16   am
    32    15    28    1
    33    16    17    2
    34    16    18    1
    35    18    27    1
    36    18    19    2
    37    19    20    1
    38    19    45    1
    39    20    26   ar
    40    20    21   ar
    41    21    22   ar
    42    21    46    1
    43    22    23    1
    44    22    24   ar
    45    23    47    1
    46    23    48    1
    47    23    49    1
    48    24    25   ar
    49    24    50    1
    50    25    26   ar
    51    25    51    1
    52    26    27    1
    53    27    52    1
    54    28    29    1
    55    28    53    1
    56    28    54    1
    57    29    30    1
@<TRIPOS>SUBSTRUCTURE
     1 ZINC000971513996        1 TEMP              0 ****  ****    0 ROOT


##########                                Name:    ZINC000863208514
##########                DOCK_Rotatable_Bonds:                   6
##########                         Heavy_Atoms:                  19
##########                    Molecular_Weight:             368.657
##########                DOCK_Rotatable_Bonds:                   6
##########                       Formal_Charge:           0.0100005
##########                     HBond_Acceptors:                   7
##########                        HBond_Donors:                   2
##########                         Heavy_Atoms:                  19
##########                          Grid_Score:          -30.211864
##########                     Grid_vdw_energy:          -27.023809
##########                      Grid_es_energy:           -3.188056
##########           Internal_energy_repulsive:            8.359309

@<TRIPOS>MOLECULE
ZINC000863208514
 31 31 1 0 0
SMALL
USER_CHARGES


@<TRIPOS>ATOM
      1 C1         -8.5106    0.5015   66.8909 C.3     1  ZINC000863208514    0.0900
      2 N2         -8.9774    0.9653   65.5820 N.am    1  ZINC000863208514   -0.6100
      3 C3         -9.6347    2.2687   65.4585 C.3     1  ZINC000863208514    0.0700
      4 C4         -8.8022    0.1928   64.4916 C.2     1  ZINC000863208514    0.5100
      5 O5         -8.2595   -0.8869   64.5941 O.2     1  ZINC000863208514   -0.5400
      6 C6         -9.2809    0.6707   63.1449 C.3     1  ZINC000863208514    0.1100
      7 N7         -8.4354    0.0976   62.0946 N.am    1  ZINC000863208514   -0.6600
      8 C8         -8.8556    0.1018   60.8141 C.2     1  ZINC000863208514    0.5600
      9 S9        -10.3783    0.7751   60.4150 S.2     1  ZINC000863208514   -0.6000
     10 N10        -8.0771   -0.4240   59.8476 N.am    1  ZINC000863208514   -0.6300
     11 C11        -8.5138   -0.4196   58.5169 C.ar    1  ZINC000863208514    0.1200
     12 C12        -9.5201   -1.2852   58.1127 C.ar    1  ZINC000863208514   -0.0300
     13 C13        -9.9499   -1.2786   56.7983 C.ar    1  ZINC000863208514   -0.0200
     14 Cl14      -11.2093   -2.3609   56.2924 Cl      1  ZINC000863208514   -0.0300
     15 C15        -9.3773   -0.4095   55.8857 C.ar    1  ZINC000863208514   -0.0600
     16 Br16       -9.9679   -0.4038   54.0893 Br      1  ZINC000863208514   -0.0100
     17 C17        -8.3738    0.4554   56.2854 C.ar    1  ZINC000863208514   -0.1100
     18 C18        -7.9435    0.4564   57.5993 C.ar    1  ZINC000863208514    0.1100
     19 F19        -6.9638    1.3009   57.9894 F       1  ZINC000863208514   -0.1200
     20 H20        -8.7381    1.2544   67.6455 H       1  ZINC000863208514    0.0800
     21 H21        -9.0126   -0.4318   67.1460 H       1  ZINC000863208514    0.0700
     22 H22        -7.4337    0.3368   66.8552 H       1  ZINC000863208514    0.0700
     23 H23        -8.8862    3.0357   65.2600 H       1  ZINC000863208514    0.0700
     24 H24       -10.3504    2.2382   64.6370 H       1  ZINC000863208514    0.0800
     25 H25       -10.1566    2.5019   66.3866 H       1  ZINC000863208514    0.0800
     26 H26       -10.3130    0.3550   62.9931 H       1  ZINC000863208514    0.1200
     27 H27        -9.2238    1.7584   63.1040 H       1  ZINC000863208514    0.1200
     28 H28        -7.5732   -0.2850   62.3209 H       1  ZINC000863208514    0.4100
     29 H29        -7.2144   -0.8054   60.0737 H       1  ZINC000863208514    0.4200
     30 H30        -9.9673   -1.9638   58.8240 H       1  ZINC000863208514    0.1800
     31 H31        -7.9286    1.1324   55.5713 H       1  ZINC000863208514    0.1600
@<TRIPOS>BOND
     1     1     2    1
     2     1    20    1
     3     1    21    1
     4     1    22    1
     5     2     3    1
     6     2     4   am
     7     3    23    1
     8     3    24    1
     9     3    25    1
    10     4     5    2
    11     4     6    1
    12     6     7    1
    13     6    26    1
    14     6    27    1
    15     7     8   am
    16     7    28    1
    17     8     9    2
    18     8    10   am
    19    10    11    1
    20    10    29    1
    21    11    18   ar
    22    11    12   ar
    23    12    13   ar
    24    12    30    1
    25    13    14    1
    26    13    15   ar
    27    15    16    1
    28    15    17   ar
    29    17    18   ar
    30    17    31    1
    31    18    19    1
@<TRIPOS>SUBSTRUCTURE
     1 ZINC000863208514        1 TEMP              0 ****  ****    0 ROOT


##########                                Name:    ZINC000171059239
##########                DOCK_Rotatable_Bonds:                   8
##########                         Heavy_Atoms:                  25
##########                    Molecular_Weight:              333.39
##########                DOCK_Rotatable_Bonds:                   8
##########                       Formal_Charge:         1.10269e-06
##########                     HBond_Acceptors:                   5
##########                        HBond_Donors:                   4
##########                         Heavy_Atoms:                  25
##########                          Grid_Score:          -30.191269
##########                     Grid_vdw_energy:          -28.205000
##########                      Grid_es_energy:           -1.986269
##########           Internal_energy_repulsive:            8.337613

@<TRIPOS>MOLECULE
ZINC000171059239
 44 46 1 0 0
SMALL
USER_CHARGES


@<TRIPOS>ATOM
      1 N1        -10.4369    1.7493   66.5334 N.am    1  ZINC000171059239   -0.8500
      2 C2        -10.5047    2.0952   65.2326 C.2     1  ZINC000171059239    0.5600
      3 O3        -11.1487    3.0694   64.8956 O.2     1  ZINC000171059239   -0.5400
      4 C4         -9.7957    1.2896   64.2156 C.ar    1  ZINC000171059239   -0.1400
      5 C5         -8.8657    0.3261   64.6082 C.ar    1  ZINC000171059239   -0.0900
      6 C6         -8.2079   -0.4226   63.6541 C.ar    1  ZINC000171059239   -0.1200
      7 C7         -8.4682   -0.2194   62.3107 C.ar    1  ZINC000171059239   -0.0800
      8 C8         -9.3888    0.7348   61.9145 C.ar    1  ZINC000171059239   -0.0900
      9 C9         -9.6657    0.9496   60.4489 C.3     1  ZINC000171059239   -0.0900
     10 C10        -8.3971    1.4553   59.7590 C.3     1  ZINC000171059239    0.1400
     11 N11        -8.7556    2.1168   58.5019 N.am    1  ZINC000171059239   -0.7400
     12 C12        -8.2004    1.7089   57.3436 C.2     1  ZINC000171059239    0.7000
     13 O13        -7.4031    0.7909   57.3417 O.2     1  ZINC000171059239   -0.5700
     14 N14        -8.5289    2.3185   56.1872 N.am    1  ZINC000171059239   -0.6800
     15 C15        -7.9537    1.8959   54.9873 C.ar    1  ZINC000171059239    0.1700
     16 C16        -8.4660    0.7687   54.3105 C.ar    1  ZINC000171059239   -0.0600
     17 C17        -9.5575    0.0476   54.8193 C.ar    1  ZINC000171059239   -0.1100
     18 C18       -10.0260   -1.0351   54.1394 C.ar    1  ZINC000171059239   -0.1100
     19 C19        -9.4371   -1.4401   52.9431 C.ar    1  ZINC000171059239   -0.1200
     20 C20        -8.3774   -0.7649   52.4201 C.ar    1  ZINC000171059239   -0.1000
     21 C21        -7.8668    0.3581   53.0940 C.ar    1  ZINC000171059239   -0.0400
     22 C22        -6.7744    1.0793   52.5833 C.ar    1  ZINC000171059239   -0.1200
     23 C23        -6.3008    2.1636   53.2571 C.ar    1  ZINC000171059239   -0.0900
     24 C24        -6.8841    2.5792   54.4502 C.ar    1  ZINC000171059239   -0.1200
     25 C25       -10.0580    1.4856   62.8586 C.ar    1  ZINC000171059239   -0.0500
     26 H26       -10.9011    2.2785   67.2008 H       1  ZINC000171059239    0.4100
     27 H27        -9.9272    0.9688   66.8018 H       1  ZINC000171059239    0.4000
     28 H28        -8.6611    0.1671   65.6567 H       1  ZINC000171059239    0.1300
     29 H29        -7.4879   -1.1686   63.9566 H       1  ZINC000171059239    0.1300
     30 H30        -7.9503   -0.8079   61.5677 H       1  ZINC000171059239    0.1300
     31 H31        -9.9749    0.0077   59.9956 H       1  ZINC000171059239    0.0800
     32 H32       -10.4605    1.6865   60.3335 H       1  ZINC000171059239    0.0800
     33 H33        -7.8875    2.1651   60.4105 H       1  ZINC000171059239    0.0700
     34 H34        -7.7365    0.6137   59.5511 H       1  ZINC000171059239    0.0700
     35 H35        -9.3926    2.8484   58.5032 H       1  ZINC000171059239    0.4000
     36 H36        -9.1650    3.0508   56.1888 H       1  ZINC000171059239    0.4100
     37 H37       -10.0232    0.3498   55.7457 H       1  ZINC000171059239    0.1200
     38 H38       -10.8660   -1.5880   54.5330 H       1  ZINC000171059239    0.1200
     39 H39        -9.8272   -2.3027   52.4235 H       1  ZINC000171059239    0.1200
     40 H40        -7.9307   -1.0906   51.4922 H       1  ZINC000171059239    0.1300
     41 H41        -6.3106    0.7736   51.6571 H       1  ZINC000171059239    0.1300
     42 H42        -5.4608    2.7121   52.8572 H       1  ZINC000171059239    0.1300
     43 H43        -6.4896    3.4427   54.9650 H       1  ZINC000171059239    0.1400
     44 H44       -10.7764    2.2298   62.5481 H       1  ZINC000171059239    0.1400
@<TRIPOS>BOND
     1     1     2   am
     2     1    26    1
     3     1    27    1
     4     2     3    2
     5     2     4    1
     6     4    25   ar
     7     4     5   ar
     8     5     6   ar
     9     5    28    1
    10     6     7   ar
    11     6    29    1
    12     7     8   ar
    13     7    30    1
    14     8     9    1
    15     8    25   ar
    16     9    10    1
    17     9    31    1
    18     9    32    1
    19    10    11    1
    20    10    33    1
    21    10    34    1
    22    11    12   am
    23    11    35    1
    24    12    13    2
    25    12    14   am
    26    14    15    1
    27    14    36    1
    28    15    24   ar
    29    15    16   ar
    30    16    21   ar
    31    16    17   ar
    32    17    18   ar
    33    17    37    1
    34    18    19   ar
    35    18    38    1
    36    19    20   ar
    37    19    39    1
    38    20    21   ar
    39    20    40    1
    40    21    22   ar
    41    22    23   ar
    42    22    41    1
    43    23    24   ar
    44    23    42    1
    45    24    43    1
    46    25    44    1
@<TRIPOS>SUBSTRUCTURE
     1 ZINC000171059239        1 TEMP              0 ****  ****    0 ROOT


##########                                Name:    ZINC000466160459
##########                DOCK_Rotatable_Bonds:                   9
##########                         Heavy_Atoms:                  30
##########                    Molecular_Weight:             420.512
##########                DOCK_Rotatable_Bonds:                   9
##########                       Formal_Charge:          -0.0300007
##########                     HBond_Acceptors:                  10
##########                        HBond_Donors:                   2
##########                         Heavy_Atoms:                  30
##########                          Grid_Score:          -30.179544
##########                     Grid_vdw_energy:          -28.480730
##########                      Grid_es_energy:           -1.698815
##########           Internal_energy_repulsive:          193.468750

@<TRIPOS>MOLECULE
ZINC000466160459
 62 64 1 0 0
SMALL
USER_CHARGES


@<TRIPOS>ATOM
      1 C1         -9.7724   -1.9906   55.0857 C.3     1  ZINC000466160459    0.0300
      2 O2         -9.6784   -3.1946   55.8496 O.3     1  ZINC000466160459   -0.3900
      3 C3        -10.5358   -3.2264   56.9924 C.3     1  ZINC000466160459    0.0500
      4 C4        -11.9915   -3.0896   56.5416 C.3     1  ZINC000466160459    0.1200
      5 N5        -12.8705   -3.1222   57.7131 N.am    1  ZINC000466160459   -0.7300
      6 C6        -14.0559   -2.4816   57.6843 C.2     1  ZINC000466160459    0.5200
      7 O7        -14.3956   -1.8793   56.6879 O.2     1  ZINC000466160459   -0.5200
      8 C8        -14.9594   -2.5137   58.8901 C.3     1  ZINC000466160459   -0.1300
      9 H9        -15.6199   -3.3784   58.8269 H       1  ZINC000466160459    0.1100
     10 C10       -15.7967   -1.2334   58.9352 C.3     1  ZINC000466160459   -0.1000
     11 C11       -14.8696   -0.0171   58.9900 C.3     1  ZINC000466160459   -0.1500
     12 C12       -14.0203   -0.0844   60.2632 C.3     1  ZINC000466160459    0.1600
     13 H13       -14.6647    0.0070   61.1375 H       1  ZINC000466160459    0.0700
     14 C14       -12.9978    1.0537   60.2583 C.3     1  ZINC000466160459   -0.1400
     15 N15       -13.3226   -1.3770   60.2985 N.am    1  ZINC000466160459   -0.6200
     16 C16       -11.9849   -1.4313   60.4534 C.2     1  ZINC000466160459    0.7100
     17 O17       -11.4193   -2.5072   60.4809 O.2     1  ZINC000466160459   -0.5500
     18 N18       -11.2742   -0.2929   60.5778 N.am    1  ZINC000466160459   -0.7300
     19 C19        -9.8201   -0.3519   60.7463 C.3     1  ZINC000466160459    0.1600
     20 H20        -9.5321   -1.3562   61.0567 H       1  ZINC000466160459    0.1300
     21 C21        -9.3911    0.6541   61.8172 C.3     1  ZINC000466160459   -0.1400
     22 C22        -9.5502    2.0680   61.2456 C.3     1  ZINC000466160459   -0.1400
     23 C23        -8.5277    2.2612   60.1250 C.3     1  ZINC000466160459    0.1100
     24 N24        -8.5983    1.1586   59.1744 N.am    1  ZINC000466160459   -0.5200
     25 C25        -8.0482    1.3536   57.9001 C.2     1  ZINC000466160459    0.2800
     26 N26        -8.6088    1.0253   56.7600 N.2     1  ZINC000466160459   -0.2600
     27 N27        -7.7373    1.3867   55.7247 N.pl3   1  ZINC000466160459   -0.3800
     28 C28        -7.9772    1.1966   54.2920 C.3     1  ZINC000466160459    0.1000
     29 C29        -6.6380    1.9410   56.2778 C.2     1  ZINC000466160459    0.0700
     30 C30        -6.8036    1.9400   57.6201 C.2     1  ZINC000466160459   -0.2900
     31 C31        -9.1531   -0.0224   59.4417 C.2     1  ZINC000466160459    0.4900
     32 O32        -9.1174   -0.8804   58.5851 O.2     1  ZINC000466160459   -0.4700
     33 C33       -14.1111   -2.6101   60.1620 C.3     1  ZINC000466160459    0.1200
     34 H34        -9.0912   -2.0450   54.2365 H       1  ZINC000466160459    0.0900
     35 H35       -10.7936   -1.8681   54.7250 H       1  ZINC000466160459    0.0400
     36 H36        -9.5042   -1.1405   55.7129 H       1  ZINC000466160459    0.0400
     37 H37       -10.4056   -4.1722   57.5182 H       1  ZINC000466160459    0.0600
     38 H38       -10.2830   -2.4021   57.6593 H       1  ZINC000466160459    0.0700
     39 H39       -12.1218   -2.1437   56.0160 H       1  ZINC000466160459    0.0800
     40 H40       -12.2444   -3.9137   55.8747 H       1  ZINC000466160459    0.0800
     41 H41       -12.5994   -3.6049   58.5097 H       1  ZINC000466160459    0.4000
     42 H42       -16.4196   -1.1753   58.0425 H       1  ZINC000466160459    0.0700
     43 H43       -16.4320   -1.2461   59.8207 H       1  ZINC000466160459    0.0700
     44 H44       -14.2170   -0.0174   58.1169 H       1  ZINC000466160459    0.1000
     45 H45       -15.4662    0.8950   58.9984 H       1  ZINC000466160459    0.0700
     46 H46       -13.5130    2.0044   60.1215 H       1  ZINC000466160459    0.0400
     47 H47       -12.4616    1.0644   61.2074 H       1  ZINC000466160459    0.0800
     48 H48       -12.2903    0.9031   59.4430 H       1  ZINC000466160459    0.0600
     49 H49       -11.7255    0.5655   60.5557 H       1  ZINC000466160459    0.3900
     50 H50       -10.0212    0.5419   62.6995 H       1  ZINC000466160459    0.0900
     51 H51        -8.3488    0.4820   62.0858 H       1  ZINC000466160459    0.0900
     52 H52       -10.5573    2.1901   60.8467 H       1  ZINC000466160459    0.0700
     53 H53        -9.3742    2.8023   62.0317 H       1  ZINC000466160459    0.1000
     54 H54        -8.7337    3.1975   59.6066 H       1  ZINC000466160459    0.0900
     55 H55        -7.5266    2.3032   60.5541 H       1  ZINC000466160459    0.0800
     56 H56        -8.4792    2.0757   53.8879 H       1  ZINC000466160459    0.0700
     57 H57        -7.0255    1.0541   53.7800 H       1  ZINC000466160459    0.0900
     58 H58        -8.6054    0.3185   54.1422 H       1  ZINC000466160459    0.0900
     59 H59        -5.7803    2.3217   55.7432 H       1  ZINC000466160459    0.1800
     60 H60        -6.0999    2.3164   58.3478 H       1  ZINC000466160459    0.1500
     61 H61       -14.7629   -2.7247   61.0282 H       1  ZINC000466160459    0.0900
     62 H62       -13.4406   -3.4665   60.0908 H       1  ZINC000466160459    0.0700
@<TRIPOS>BOND
     1     1     2    1
     2     1    34    1
     3     1    35    1
     4     1    36    1
     5     2     3    1
     6     3     4    1
     7     3    37    1
     8     3    38    1
     9     4     5    1
    10     4    39    1
    11     4    40    1
    12     5     6   am
    13     5    41    1
    14     6     7    2
    15     6     8    1
    16     8     9    1
    17     8    33    1
    18     8    10    1
    19    10    11    1
    20    10    42    1
    21    10    43    1
    22    11    12    1
    23    11    44    1
    24    11    45    1
    25    12    13    1
    26    12    14    1
    27    12    15    1
    28    14    46    1
    29    14    47    1
    30    14    48    1
    31    15    16   am
    32    15    33    1
    33    16    17    2
    34    16    18   am
    35    18    19    1
    36    18    49    1
    37    19    20    1
    38    19    31    1
    39    19    21    1
    40    21    22    1
    41    21    50    1
    42    21    51    1
    43    22    23    1
    44    22    52    1
    45    22    53    1
    46    23    24    1
    47    23    54    1
    48    23    55    1
    49    24    25    1
    50    24    31   am
    51    25    30    1
    52    25    26    2
    53    26    27    1
    54    27    28    1
    55    27    29    1
    56    28    56    1
    57    28    57    1
    58    28    58    1
    59    29    30    2
    60    29    59    1
    61    30    60    1
    62    31    32    2
    63    33    61    1
    64    33    62    1
@<TRIPOS>SUBSTRUCTURE
     1 ZINC000466160459        1 TEMP              0 ****  ****    0 ROOT


##########                                Name:    ZINC000195331548
##########                DOCK_Rotatable_Bonds:                   7
##########                         Heavy_Atoms:                  26
##########                    Molecular_Weight:             378.539
##########                DOCK_Rotatable_Bonds:                   7
##########                       Formal_Charge:          -0.0100004
##########                     HBond_Acceptors:                   7
##########                        HBond_Donors:                   2
##########                         Heavy_Atoms:                  26
##########                          Grid_Score:          -30.150757
##########                     Grid_vdw_energy:          -28.681677
##########                      Grid_es_energy:           -1.469080
##########           Internal_energy_repulsive:           26.778084

@<TRIPOS>MOLECULE
ZINC000195331548
 56 58 1 0 0
SMALL
USER_CHARGES


@<TRIPOS>ATOM
      1 C1         -8.5479   -0.1230   62.6409 C.3     1  ZINC000195331548   -0.0800
      2 C2         -9.2188    0.3704   61.3849 C.2     1  ZINC000195331548    0.0700
      3 C3         -9.2052    1.6544   61.0145 C.2     1  ZINC000195331548   -0.2600
      4 S4        -10.0922    1.7908   59.4982 S.3     1  ZINC000195331548    0.1100
      5 C5        -10.4005    0.1091   59.5175 C.2     1  ZINC000195331548    0.0600
      6 C6        -11.1775   -0.6375   58.4639 C.3     1  ZINC000195331548   -0.0100
      7 H7        -12.0251   -0.0336   58.1398 H       1  ZINC000195331548    0.1100
      8 C8        -11.6844   -1.9606   59.0442 C.3     1  ZINC000195331548   -0.1200
      9 C9        -12.4208   -2.7396   57.9508 C.3     1  ZINC000195331548   -0.1100
     10 C10       -11.4756   -2.9672   56.7689 C.3     1  ZINC000195331548    0.0500
     11 N11       -11.0191   -1.6719   56.2491 N.3     1  ZINC000195331548   -0.5200
     12 C12       -10.2204   -1.8464   55.0285 C.3     1  ZINC000195331548    0.0400
     13 C13       -10.0369   -0.5118   54.3533 C.2     1  ZINC000195331548    0.5100
     14 O14       -10.9968    0.1984   54.1431 O.2     1  ZINC000195331548   -0.4400
     15 N15        -8.8056   -0.1075   53.9831 N.am    1  ZINC000195331548   -0.7000
     16 C16        -8.6416    1.0854   53.3778 C.2     1  ZINC000195331548    0.6900
     17 O17        -9.6043    1.7961   53.1644 O.2     1  ZINC000195331548   -0.5300
     18 N18        -7.4102    1.4904   53.0091 N.am    1  ZINC000195331548   -0.7300
     19 C19        -7.2317    2.7879   52.3526 C.3     1  ZINC000195331548    0.1700
     20 H20        -8.1886    3.1304   51.9585 H       1  ZINC000195331548    0.0900
     21 C21        -6.2292    2.6456   51.2057 C.3     1  ZINC000195331548   -0.1300
     22 C22        -4.8862    2.1649   51.7589 C.3     1  ZINC000195331548   -0.1200
     23 C23        -4.3593    3.1816   52.7737 C.3     1  ZINC000195331548   -0.1200
     24 C24        -5.3618    3.3240   53.9206 C.3     1  ZINC000195331548   -0.1100
     25 C25        -6.7049    3.8046   53.3673 C.3     1  ZINC000195331548   -0.1000
     26 H26        -6.5721    4.7700   52.8790 H       1  ZINC000195331548    0.0900
     27 C27        -7.7074    3.9468   54.5144 C.3     1  ZINC000195331548   -0.1500
     28 C28       -10.2683   -0.9260   57.2671 C.3     1  ZINC000195331548    0.0600
     29 N29        -9.8669   -0.4290   60.5617 N.2     1  ZINC000195331548   -0.4700
     30 H30        -7.5185   -0.4028   62.4170 H       1  ZINC000195331548    0.0800
     31 H31        -8.5545    0.6678   63.3910 H       1  ZINC000195331548    0.0800
     32 H32        -9.0854   -0.9909   63.0231 H       1  ZINC000195331548    0.0800
     33 H33        -8.7308    2.4646   61.5483 H       1  ZINC000195331548    0.1800
     34 H34       -10.8397   -2.5481   59.4040 H       1  ZINC000195331548    0.0600
     35 H35       -12.3659   -1.7586   59.8706 H       1  ZINC000195331548    0.0700
     36 H36       -12.7472   -3.7014   58.3463 H       1  ZINC000195331548    0.0800
     37 H37       -13.2881   -2.1689   57.6186 H       1  ZINC000195331548    0.0800
     38 H38       -12.0012   -3.5092   55.9827 H       1  ZINC000195331548    0.0800
     39 H39       -10.6155   -3.5497   57.0988 H       1  ZINC000195331548    0.0400
     40 H40       -10.7355   -2.5282   54.3518 H       1  ZINC000195331548    0.1200
     41 H41        -9.2457   -2.2594   55.2881 H       1  ZINC000195331548    0.0700
     42 H42        -8.0375   -0.6752   54.1524 H       1  ZINC000195331548    0.4100
     43 H43        -6.6420    0.9228   53.1783 H       1  ZINC000195331548    0.4000
     44 H44        -6.0964    3.6111   50.7173 H       1  ZINC000195331548    0.0700
     45 H45        -6.6046    1.9214   50.4827 H       1  ZINC000195331548    0.0700
     46 H46        -4.1719    2.0636   50.9417 H       1  ZINC000195331548    0.0600
     47 H47        -5.0189    1.1996   52.2472 H       1  ZINC000195331548    0.0600
     48 H48        -3.4025    2.8392   53.1678 H       1  ZINC000195331548    0.0600
     49 H49        -4.2265    4.1471   52.2853 H       1  ZINC000195331548    0.0600
     50 H50        -5.4946    2.3585   54.4089 H       1  ZINC000195331548    0.0600
     51 H51        -4.9865    4.0483   54.6435 H       1  ZINC000195331548    0.0700
     52 H52        -7.8402    2.9815   55.0027 H       1  ZINC000195331548    0.0500
     53 H53        -7.3321    4.6712   55.2373 H       1  ZINC000195331548    0.0600
     54 H54        -8.6642    4.2893   54.1202 H       1  ZINC000195331548    0.0600
     55 H55        -9.4138   -1.5182   57.5946 H       1  ZINC000195331548    0.0400
     56 H56        -9.9171    0.0146   56.8427 H       1  ZINC000195331548    0.0900
@<TRIPOS>BOND
     1     1     2    1
     2     1    30    1
     3     1    31    1
     4     1    32    1
     5     2    29    1
     6     2     3    2
     7     3     4    1
     8     3    33    1
     9     4     5    1
    10     5     6    1
    11     5    29    2
    12     6     7    1
    13     6    28    1
    14     6     8    1
    15     8     9    1
    16     8    34    1
    17     8    35    1
    18     9    10    1
    19     9    36    1
    20     9    37    1
    21    10    11    1
    22    10    38    1
    23    10    39    1
    24    11    12    1
    25    11    28    1
    26    12    13    1
    27    12    40    1
    28    12    41    1
    29    13    14    2
    30    13    15   am
    31    15    16   am
    32    15    42    1
    33    16    17    2
    34    16    18   am
    35    18    19    1
    36    18    43    1
    37    19    20    1
    38    19    25    1
    39    19    21    1
    40    21    22    1
    41    21    44    1
    42    21    45    1
    43    22    23    1
    44    22    46    1
    45    22    47    1
    46    23    24    1
    47    23    48    1
    48    23    49    1
    49    24    25    1
    50    24    50    1
    51    24    51    1
    52    25    26    1
    53    25    27    1
    54    27    52    1
    55    27    53    1
    56    27    54    1
    57    28    55    1
    58    28    56    1
@<TRIPOS>SUBSTRUCTURE
     1 ZINC000195331548        1 TEMP              0 ****  ****    0 ROOT


##########                                Name:    ZINC000623695407
##########                DOCK_Rotatable_Bonds:                  10
##########                         Heavy_Atoms:                  27
##########                    Molecular_Weight:             368.479
##########                DOCK_Rotatable_Bonds:                  10
##########                       Formal_Charge:           0.0299989
##########                     HBond_Acceptors:                   6
##########                        HBond_Donors:                   2
##########                         Heavy_Atoms:                  27
##########                          Grid_Score:          -30.147810
##########                     Grid_vdw_energy:          -29.133530
##########                      Grid_es_energy:           -1.014280
##########           Internal_energy_repulsive:           12.204702

@<TRIPOS>MOLECULE
ZINC000623695407
 55 57 1 0 0
SMALL
USER_CHARGES


@<TRIPOS>ATOM
      1 C1         -7.3988    1.9043   58.7263 C.3     1  ZINC000623695407    0.0300
      2 O2         -7.3965    0.5261   58.3484 O.3     1  ZINC000623695407   -0.3200
      3 C3         -8.5416   -0.1740   58.5616 C.ar    1  ZINC000623695407    0.1300
      4 C4         -8.7877   -0.7421   59.8031 C.ar    1  ZINC000623695407   -0.2100
      5 C5         -9.9528   -1.4529   60.0175 C.ar    1  ZINC000623695407   -0.0600
      6 C6        -10.8729   -1.5987   58.9957 C.ar    1  ZINC000623695407   -0.1100
      7 C7        -12.1428   -2.3750   59.2321 C.3     1  ZINC000623695407    0.0600
      8 N8        -13.3011   -1.5096   58.9727 N.3     1  ZINC000623695407   -0.4600
      9 C9        -14.5057   -2.3109   58.6864 C.3     1  ZINC000623695407    0.0000
     10 C10       -15.3007   -1.3228   59.5514 C.3     1  ZINC000623695407   -0.1300
     11 C11       -13.9444   -1.0956   60.2336 C.3     1  ZINC000623695407    0.0100
     12 H12       -13.7553   -1.7782   61.0621 H       1  ZINC000623695407    0.0900
     13 C13       -13.6841    0.3667   60.6007 C.3     1  ZINC000623695407    0.1600
     14 N14       -13.1635    0.4418   61.9680 N.am    1  ZINC000623695407   -0.7400
     15 C15       -12.6933    1.6107   62.4467 C.2     1  ZINC000623695407    0.7100
     16 O16       -12.7025    2.6031   61.7444 O.2     1  ZINC000623695407   -0.5900
     17 N17       -12.2129    1.6793   63.7041 N.am    1  ZINC000623695407   -0.7400
     18 C18       -11.7002    2.9495   64.2239 C.3     1  ZINC000623695407    0.1700
     19 H19       -12.2034    3.7766   63.7232 H       1  ZINC000623695407    0.0900
     20 C20       -11.9636    3.0281   65.7290 C.3     1  ZINC000623695407   -0.1600
     21 C21       -10.1948    3.0361   63.9643 C.3     1  ZINC000623695407   -0.0900
     22 C22        -9.5054    1.8618   64.6097 C.ar    1  ZINC000623695407   -0.0300
     23 C23        -9.3203    0.6771   63.9135 C.ar    1  ZINC000623695407   -0.1700
     24 C24        -8.6836   -0.3786   64.5381 C.ar    1  ZINC000623695407    0.1000
     25 N25        -8.2555   -0.2684   65.7805 N.ar    1  ZINC000623695407   -0.4900
     26 C26        -8.4143    0.8426   66.4728 C.ar    1  ZINC000623695407    0.1000
     27 C27        -9.0362    1.9421   65.9120 C.ar    1  ZINC000623695407   -0.1700
     28 C28       -10.6301   -1.0331   57.7576 C.ar    1  ZINC000623695407   -0.0700
     29 C29        -9.4690   -0.3170   57.5398 C.ar    1  ZINC000623695407   -0.1500
     30 H30        -6.4267    2.3439   58.5029 H       1  ZINC000623695407    0.1000
     31 H31        -8.1729    2.4324   58.1695 H       1  ZINC000623695407    0.0600
     32 H32        -7.5986    1.9877   59.7946 H       1  ZINC000623695407    0.0600
     33 H33        -8.0691   -0.6290   60.6012 H       1  ZINC000623695407    0.1300
     34 H34       -10.1449   -1.8953   60.9838 H       1  ZINC000623695407    0.1200
     35 H35       -12.1736   -3.2340   58.5619 H       1  ZINC000623695407    0.0600
     36 H36       -12.1710   -2.7195   60.2659 H       1  ZINC000623695407    0.0700
     37 H37       -14.7956   -2.2989   57.6357 H       1  ZINC000623695407    0.0900
     38 H38       -14.4664   -3.3178   59.1020 H       1  ZINC000623695407    0.0700
     39 H39       -15.6776   -0.4565   59.0076 H       1  ZINC000623695407    0.1000
     40 H40       -16.0490   -1.7913   60.1908 H       1  ZINC000623695407    0.0800
     41 H41       -12.9545    0.7902   59.9103 H       1  ZINC000623695407    0.0700
     42 H42       -14.6156    0.9291   60.5350 H       1  ZINC000623695407    0.0700
     43 H43       -13.1574   -0.3496   62.5287 H       1  ZINC000623695407    0.3900
     44 H44       -12.2068    0.8879   64.2649 H       1  ZINC000623695407    0.3900
     45 H45       -11.5819    3.9732   66.1157 H       1  ZINC000623695407    0.0700
     46 H46       -13.0360    2.9664   65.9139 H       1  ZINC000623695407    0.0700
     47 H47       -11.4603    2.2010   66.2296 H       1  ZINC000623695407    0.0600
     48 H48       -10.0099    3.0207   62.8902 H       1  ZINC000623695407    0.1000
     49 H49        -9.8060    3.9627   64.3866 H       1  ZINC000623695407    0.0800
     50 H50        -9.6694    0.5805   62.8961 H       1  ZINC000623695407    0.1300
     51 H51        -8.5355   -1.3049   64.0027 H       1  ZINC000623695407    0.1500
     52 H52        -8.0506    0.8954   67.4883 H       1  ZINC000623695407    0.1600
     53 H53        -9.1630    2.8495   66.4838 H       1  ZINC000623695407    0.1400
     54 H54       -11.3506   -1.1482   56.9613 H       1  ZINC000623695407    0.1200
     55 H55        -9.2798    0.1247   56.5725 H       1  ZINC000623695407    0.1300
@<TRIPOS>BOND
     1     1     2    1
     2     1    30    1
     3     1    31    1
     4     1    32    1
     5     2     3    1
     6     3    29   ar
     7     3     4   ar
     8     4     5   ar
     9     4    33    1
    10     5     6   ar
    11     5    34    1
    12     6     7    1
    13     6    28   ar
    14     7     8    1
    15     7    35    1
    16     7    36    1
    17     8    11    1
    18     8     9    1
    19     9    10    1
    20     9    37    1
    21     9    38    1
    22    10    11    1
    23    10    39    1
    24    10    40    1
    25    11    12    1
    26    11    13    1
    27    13    14    1
    28    13    41    1
    29    13    42    1
    30    14    15   am
    31    14    43    1
    32    15    16    2
    33    15    17   am
    34    17    18    1
    35    17    44    1
    36    18    19    1
    37    18    20    1
    38    18    21    1
    39    20    45    1
    40    20    46    1
    41    20    47    1
    42    21    22    1
    43    21    48    1
    44    21    49    1
    45    22    27   ar
    46    22    23   ar
    47    23    24   ar
    48    23    50    1
    49    24    25   ar
    50    24    51    1
    51    25    26   ar
    52    26    27   ar
    53    26    52    1
    54    27    53    1
    55    28    29   ar
    56    28    54    1
    57    29    55    1
@<TRIPOS>SUBSTRUCTURE
     1 ZINC000623695407        1 TEMP              0 ****  ****    0 ROOT


##########                                Name:    ZINC000919225759
##########                DOCK_Rotatable_Bonds:                   4
##########                         Heavy_Atoms:                  27
##########                    Molecular_Weight:             375.295
##########                DOCK_Rotatable_Bonds:                   4
##########                       Formal_Charge:                0.04
##########                     HBond_Acceptors:                  11
##########                        HBond_Donors:                   0
##########                         Heavy_Atoms:                  27
##########                          Grid_Score:          -30.123293
##########                     Grid_vdw_energy:          -29.346180
##########                      Grid_es_energy:           -0.777112
##########           Internal_energy_repulsive:            8.677151

@<TRIPOS>MOLECULE
ZINC000919225759
 40 41 1 0 0
SMALL
USER_CHARGES


@<TRIPOS>ATOM
      1 C1        -12.2902    1.6434   61.6048 C.3     1  ZINC000919225759   -0.1500
      2 C2        -12.9937    0.4367   61.0390 C.ar    1  ZINC000919225759    0.0900
      3 C3        -12.2654   -0.5467   60.3671 C.ar    1  ZINC000919225759   -0.1200
      4 C4        -10.8032   -0.4085   60.2082 C.2     1  ZINC000919225759    0.5200
      5 O5        -10.0945   -0.2885   61.1873 O.2     1  ZINC000919225759   -0.4700
      6 O6        -10.2558   -0.4156   58.9773 O.3     1  ZINC000919225759   -0.3400
      7 C7         -8.8145   -0.2604   58.8959 C.3     1  ZINC000919225759    0.1400
      8 H8         -8.4955    0.5320   59.5732 H       1  ZINC000919225759    0.1100
      9 C9         -8.1368   -1.5735   59.2926 C.3     1  ZINC000919225759   -0.1700
     10 C10        -8.4267    0.0988   57.4846 C.ar    1  ZINC000919225759   -0.1000
     11 C11        -7.3657    0.9546   57.2561 C.ar    1  ZINC000919225759   -0.0400
     12 C12        -7.0100    1.2841   55.9613 C.ar    1  ZINC000919225759   -0.1100
     13 C13        -7.7150    0.7574   54.8956 C.ar    1  ZINC000919225759   -0.0500
     14 C14        -8.7757   -0.0994   55.1242 C.ar    1  ZINC000919225759   -0.0400
     15 N15        -9.5310   -0.6631   53.9830 N.pl3   1  ZINC000919225759    0.0300
     16 O16        -9.2181   -0.3722   52.8424 O.2     1  ZINC000919225759   -0.1500
     17 O17       -10.4655   -1.4179   54.1843 O.2     1  ZINC000919225759   -0.1500
     18 C18        -9.1286   -0.4322   56.4185 C.ar    1  ZINC000919225759   -0.0400
     19 C19       -12.9252   -1.6619   59.8463 C.ar    1  ZINC000919225759    0.0500
     20 C20       -14.2905   -1.7847   59.9987 C.ar    1  ZINC000919225759   -0.0600
     21 N21       -14.9916   -2.9663   59.4478 N.pl3   1  ZINC000919225759    0.0300
     22 O22       -14.3628   -3.8286   58.8607 O.2     1  ZINC000919225759   -0.1300
     23 O23       -16.1972   -3.0762   59.5815 O.2     1  ZINC000919225759   -0.1300
     24 C24       -15.0064   -0.8062   60.6657 C.ar    1  ZINC000919225759    0.0400
     25 C25       -14.3582    0.2986   61.1887 C.ar    1  ZINC000919225759   -0.0500
     26 N26       -15.1321    1.3400   61.9012 N.pl3   1  ZINC000919225759    0.0200
     27 O27       -16.2416    1.6510   61.5067 O.2     1  ZINC000919225759   -0.1300
     28 O28       -14.6592    1.8860   62.8819 O.2     1  ZINC000919225759   -0.1200
     29 H29       -11.8731    1.3962   62.5810 H       1  ZINC000919225759    0.1200
     30 H30       -11.4870    1.9443   60.9321 H       1  ZINC000919225759    0.1200
     31 H31       -13.0016    2.4624   61.7104 H       1  ZINC000919225759    0.0900
     32 H32        -8.4557   -2.3658   58.6154 H       1  ZINC000919225759    0.0700
     33 H33        -7.0548   -1.4570   59.2315 H       1  ZINC000919225759    0.0900
     34 H34        -8.4172   -1.8333   60.3133 H       1  ZINC000919225759    0.0700
     35 H35        -6.8149    1.3661   58.0889 H       1  ZINC000919225759    0.1500
     36 H36        -6.1813    1.9533   55.7827 H       1  ZINC000919225759    0.1500
     37 H37        -7.4375    1.0154   53.8842 H       1  ZINC000919225759    0.1600
     38 H38        -9.9572   -1.1015   56.5971 H       1  ZINC000919225759    0.1600
     39 H39       -12.3679   -2.4262   59.3252 H       1  ZINC000919225759    0.1900
     40 H40       -16.0754   -0.9072   60.7819 H       1  ZINC000919225759    0.1900
@<TRIPOS>BOND
     1     1     2    1
     2     1    29    1
     3     1    30    1
     4     1    31    1
     5     2    25   ar
     6     2     3   ar
     7     3     4    1
     8     3    19   ar
     9     4     5    2
    10     4     6    1
    11     6     7    1
    12     7     8    1
    13     7     9    1
    14     7    10    1
    15     9    32    1
    16     9    33    1
    17     9    34    1
    18    10    18   ar
    19    10    11   ar
    20    11    12   ar
    21    11    35    1
    22    12    13   ar
    23    12    36    1
    24    13    14   ar
    25    13    37    1
    26    14    15    1
    27    14    18   ar
    28    15    16    2
    29    15    17    2
    30    18    38    1
    31    19    20   ar
    32    19    39    1
    33    20    21    1
    34    20    24   ar
    35    21    22    2
    36    21    23    2
    37    24    25   ar
    38    24    40    1
    39    25    26    1
    40    26    27    2
    41    26    28    2
@<TRIPOS>SUBSTRUCTURE
     1 ZINC000919225759        1 TEMP              0 ****  ****    0 ROOT


##########                                Name:    ZINC000962730513
##########                DOCK_Rotatable_Bonds:                   6
##########                         Heavy_Atoms:                  24
##########                    Molecular_Weight:             342.465
##########                DOCK_Rotatable_Bonds:                   6
##########                       Formal_Charge:         -0.00999998
##########                     HBond_Acceptors:                   6
##########                        HBond_Donors:                   1
##########                         Heavy_Atoms:                  24
##########                          Grid_Score:          -30.121706
##########                     Grid_vdw_energy:          -29.963726
##########                      Grid_es_energy:           -0.157979
##########           Internal_energy_repulsive:           26.616518

@<TRIPOS>MOLECULE
ZINC000962730513
 46 49 1 0 0
SMALL
USER_CHARGES


@<TRIPOS>ATOM
      1 C1        -11.9619    2.5399   64.7650 C.3     1  ZINC000962730513   -0.1400
      2 C2        -10.4999    2.8532   64.4401 C.3     1  ZINC000962730513   -0.0800
      3 C3         -9.6277    1.7137   64.9003 C.2     1  ZINC000962730513   -0.0100
      4 C4         -9.3166    0.6405   64.1136 C.2     1  ZINC000962730513   -0.2800
      5 C5         -9.7711    0.4367   62.7349 C.2     1  ZINC000962730513    0.6000
      6 O6        -10.6971    1.0933   62.2961 O.2     1  ZINC000962730513   -0.5200
      7 N7         -9.1634   -0.4778   61.9534 N.am    1  ZINC000962730513   -0.7000
      8 C8         -9.6188   -0.6828   60.5761 C.3     1  ZINC000962730513    0.1200
      9 H9        -10.6960   -0.6173   60.4231 H       1  ZINC000962730513    0.1400
     10 C10        -8.8446   -1.6867   59.7195 C.3     1  ZINC000962730513   -0.1700
     11 H11        -8.0339   -2.2619   60.1668 H       1  ZINC000962730513    0.1200
     12 C12        -9.5504   -2.2863   58.4845 C.3     1  ZINC000962730513    0.0700
     13 N13        -9.2778   -1.3186   57.3908 N.3     1  ZINC000962730513   -0.5000
     14 C14       -10.2567   -1.4619   56.3048 C.3     1  ZINC000962730513    0.1100
     15 C15       -11.5914   -1.8591   56.8806 C.ar    1  ZINC000962730513    0.3200
     16 N16       -12.0008   -3.1051   56.7506 N.ar    1  ZINC000962730513   -0.5100
     17 C17       -13.1670   -3.4904   57.2433 C.ar    1  ZINC000962730513    0.1500
     18 C18       -13.9597   -2.5641   57.9023 C.ar    1  ZINC000962730513   -0.1900
     19 C19       -15.2942   -2.9614   58.4786 C.3     1  ZINC000962730513   -0.1100
     20 C20       -13.4952   -1.2634   58.0190 C.ar    1  ZINC000962730513    0.1500
     21 N21       -12.3159   -0.9526   57.5054 N.ar    1  ZINC000962730513   -0.5000
     22 C22        -9.3964    0.0113   58.0423 C.3     1  ZINC000962730513    0.0700
     23 C23        -8.7145   -0.1745   59.4515 C.3     1  ZINC000962730513   -0.1700
     24 H24        -7.8078    0.3958   59.6529 H       1  ZINC000962730513    0.1300
     25 S25        -8.2834   -0.4563   65.0197 S.3     1  ZINC000962730513    0.1900
     26 C26        -8.3202    0.5639   66.3868 C.2     1  ZINC000962730513   -0.2200
     27 C27        -9.0611    1.6532   66.1513 C.2     1  ZINC000962730513   -0.1500
     28 H28       -12.2597    1.6248   64.2532 H       1  ZINC000962730513    0.0600
     29 H29       -12.0746    2.4077   65.8410 H       1  ZINC000962730513    0.0500
     30 H30       -12.5927    3.3641   64.4321 H       1  ZINC000962730513    0.0600
     31 H31       -10.3872    2.9854   63.3640 H       1  ZINC000962730513    0.1000
     32 H32       -10.2020    3.7684   64.9518 H       1  ZINC000962730513    0.0700
     33 H33        -8.4247   -1.0003   62.3028 H       1  ZINC000962730513    0.4000
     34 H34        -9.1292   -3.2621   58.2422 H       1  ZINC000962730513    0.0900
     35 H35       -10.6228   -2.3676   58.6616 H       1  ZINC000962730513    0.0500
     36 H36       -10.3562   -0.5128   55.7779 H       1  ZINC000962730513    0.1000
     37 H37        -9.9179   -2.2298   55.6094 H       1  ZINC000962730513    0.0700
     38 H38       -13.4967   -4.5129   57.1331 H       1  ZINC000962730513    0.1700
     39 H39       -15.1601   -3.2993   59.5061 H       1  ZINC000962730513    0.0800
     40 H40       -15.9666   -2.1037   58.4629 H       1  ZINC000962730513    0.0700
     41 H41       -15.7211   -3.7687   57.8834 H       1  ZINC000962730513    0.0700
     42 H42       -14.0861   -0.5146   58.5255 H       1  ZINC000962730513    0.1700
     43 H43        -8.8593    0.7655   57.4674 H       1  ZINC000962730513    0.0800
     44 H44       -10.4447    0.2895   58.1503 H       1  ZINC000962730513    0.0600
     45 H45        -7.8102    0.3599   67.3167 H       1  ZINC000962730513    0.1700
     46 H46        -9.2097    2.4242   66.8927 H       1  ZINC000962730513    0.1500
@<TRIPOS>BOND
     1     1     2    1
     2     1    28    1
     3     1    29    1
     4     1    30    1
     5     2     3    1
     6     2    31    1
     7     2    32    1
     8     3    27    1
     9     3     4    2
    10     4     5    1
    11     4    25    1
    12     5     6    2
    13     5     7   am
    14     7     8    1
    15     7    33    1
    16     8     9    1
    17     8    23    1
    18     8    10    1
    19    10    11    1
    20    10    23    1
    21    10    12    1
    22    12    13    1
    23    12    34    1
    24    12    35    1
    25    13    14    1
    26    13    22    1
    27    14    15    1
    28    14    36    1
    29    14    37    1
    30    15    21   ar
    31    15    16   ar
    32    16    17   ar
    33    17    18   ar
    34    17    38    1
    35    18    19    1
    36    18    20   ar
    37    19    39    1
    38    19    40    1
    39    19    41    1
    40    20    21   ar
    41    20    42    1
    42    22    23    1
    43    22    43    1
    44    22    44    1
    45    23    24    1
    46    25    26    1
    47    26    27    2
    48    26    45    1
    49    27    46    1
@<TRIPOS>SUBSTRUCTURE
     1 ZINC000962730513        1 TEMP              0 ****  ****    0 ROOT


##########                                Name:    ZINC000842947763
##########                DOCK_Rotatable_Bonds:                   7
##########                         Heavy_Atoms:                  24
##########                    Molecular_Weight:             365.373
##########                DOCK_Rotatable_Bonds:                   7
##########                       Formal_Charge:          0.00999997
##########                     HBond_Acceptors:                   9
##########                        HBond_Donors:                   0
##########                         Heavy_Atoms:                  24
##########                          Grid_Score:          -30.107281
##########                     Grid_vdw_energy:          -29.824308
##########                      Grid_es_energy:           -0.282973
##########           Internal_energy_repulsive:           28.326460

@<TRIPOS>MOLECULE
ZINC000842947763
 42 43 1 0 0
SMALL
USER_CHARGES


@<TRIPOS>ATOM
      1 C1        -11.8875   -0.7864   59.4328 C.3     1  ZINC000842947763   -0.1600
      2 C2        -12.5107   -2.0774   58.8983 C.3     1  ZINC000842947763   -0.1000
      3 H3        -12.6447   -2.7829   59.7183 H       1  ZINC000842947763    0.1000
      4 C4        -11.5874   -2.6909   57.8436 C.3     1  ZINC000842947763    0.0800
      5 O5        -11.1281   -1.6519   56.9393 O.3     1  ZINC000842947763   -0.3500
      6 C6        -10.3484   -2.0375   55.9100 C.2     1  ZINC000842947763    0.5200
      7 O7        -10.3513   -3.1971   55.5468 O.2     1  ZINC000842947763   -0.5100
      8 C8         -9.4918   -1.0529   55.2252 C.ar    1  ZINC000842947763   -0.1600
      9 C9         -9.4203   -1.0320   53.8288 C.ar    1  ZINC000842947763   -0.0200
     10 C10        -8.6203   -0.1115   53.1966 C.ar    1  ZINC000842947763   -0.1700
     11 C11        -7.8736    0.8083   53.9430 C.ar    1  ZINC000842947763    0.2000
     12 C12        -7.9514    0.7795   55.3305 C.ar    1  ZINC000842947763   -0.1500
     13 C13        -8.7491   -0.1293   55.9668 C.ar    1  ZINC000842947763   -0.0100
     14 C14        -7.0565    1.8672   55.8826 C.3     1  ZINC000842947763   -0.0800
     15 C15        -6.4483    2.5324   54.6371 C.3     1  ZINC000842947763    0.1100
     16 N16        -7.0155    1.8067   53.4979 N.am    1  ZINC000842947763   -0.9400
     17 S17        -6.6819    2.1293   51.9084 S.o2    1  ZINC000842947763    2.6100
     18 C18        -4.8899    1.8874   51.7639 C.3     1  ZINC000842947763   -0.6700
     19 O19        -7.3806    1.1206   51.1918 O.2     1  ZINC000842947763   -0.9300
     20 O20        -7.0138    3.5021   51.7523 O.2     1  ZINC000842947763   -0.9400
     21 C21       -13.8690   -1.7650   58.2673 C.3     1  ZINC000842947763   -0.1600
     22 C22       -14.8813   -2.8356   58.6799 C.3     1  ZINC000842947763    0.4600
     23 F23       -15.0206   -2.8339   60.0718 F       1  ZINC000842947763   -0.1800
     24 F24       -16.1184   -2.5608   58.0870 F       1  ZINC000842947763   -0.1800
     25 F25       -14.4305   -4.0909   58.2579 F       1  ZINC000842947763   -0.1800
     26 H26       -12.4716   -0.4242   60.2789 H       1  ZINC000842947763    0.0700
     27 H27       -10.8648   -0.9827   59.7546 H       1  ZINC000842947763    0.0700
     28 H28       -11.8824   -0.0324   58.6456 H       1  ZINC000842947763    0.0600
     29 H29       -10.7296   -3.1504   58.3347 H       1  ZINC000842947763    0.0800
     30 H30       -12.1324   -3.4483   57.2801 H       1  ZINC000842947763    0.0800
     31 H31        -9.9934   -1.7393   53.2477 H       1  ZINC000842947763    0.1500
     32 H32        -8.5668   -0.0973   52.1180 H       1  ZINC000842947763    0.1500
     33 H33        -8.7997   -0.1394   57.0456 H       1  ZINC000842947763    0.1400
     34 H34        -7.6419    2.5891   56.4522 H       1  ZINC000842947763    0.1000
     35 H35        -6.2725    1.4358   56.5050 H       1  ZINC000842947763    0.1000
     36 H36        -6.7310    3.5843   54.5941 H       1  ZINC000842947763    0.1000
     37 H37        -5.3629    2.4320   54.6468 H       1  ZINC000842947763    0.0900
     38 H38        -4.6391    0.8610   52.0322 H       1  ZINC000842947763    0.1300
     39 H39        -4.5787    2.0809   50.7373 H       1  ZINC000842947763    0.1400
     40 H40        -4.3751    2.5745   52.4353 H       1  ZINC000842947763    0.1300
     41 H41       -14.2128   -0.7890   58.6095 H       1  ZINC000842947763    0.1200
     42 H42       -13.7719   -1.7560   57.1816 H       1  ZINC000842947763    0.1100
@<TRIPOS>BOND
     1     1     2    1
     2     1    26    1
     3     1    27    1
     4     1    28    1
     5     2     3    1
     6     2     4    1
     7     2    21    1
     8     4     5    1
     9     4    29    1
    10     4    30    1
    11     5     6    1
    12     6     7    2
    13     6     8    1
    14     8    13   ar
    15     8     9   ar
    16     9    10   ar
    17     9    31    1
    18    10    11   ar
    19    10    32    1
    20    11    16    1
    21    11    12   ar
    22    12    13   ar
    23    12    14    1
    24    13    33    1
    25    14    15    1
    26    14    34    1
    27    14    35    1
    28    15    16    1
    29    15    36    1
    30    15    37    1
    31    16    17   am
    32    17    18    1
    33    17    19    2
    34    17    20    2
    35    18    38    1
    36    18    39    1
    37    18    40    1
    38    21    22    1
    39    21    41    1
    40    21    42    1
    41    22    23    1
    42    22    24    1
    43    22    25    1
@<TRIPOS>SUBSTRUCTURE
     1 ZINC000842947763        1 TEMP              0 ****  ****    0 ROOT


##########                                Name:    ZINC000489403631
##########                DOCK_Rotatable_Bonds:                   7
##########                         Heavy_Atoms:                  28
##########                    Molecular_Weight:             381.391
##########                DOCK_Rotatable_Bonds:                   7
##########                       Formal_Charge:          -0.0300003
##########                     HBond_Acceptors:                   9
##########                        HBond_Donors:                   1
##########                         Heavy_Atoms:                  28
##########                          Grid_Score:          -30.106319
##########                     Grid_vdw_energy:          -27.516888
##########                      Grid_es_energy:           -2.589432
##########           Internal_energy_repulsive:           12.563282

@<TRIPOS>MOLECULE
ZINC000489403631
 47 49 1 0 0
SMALL
USER_CHARGES


@<TRIPOS>ATOM
      1 C1        -11.1970    1.6998   58.4361 C.3     1  ZINC000489403631   -0.1100
      2 C2        -10.3675    1.2017   59.5913 C.ar    1  ZINC000489403631   -0.0800
      3 C3        -10.1756    2.0027   60.6993 C.ar    1  ZINC000489403631   -0.0900
      4 C4         -9.4111    1.5435   61.7638 C.ar    1  ZINC000489403631    0.1200
      5 N5         -9.2165    2.3557   62.8885 N.am    1  ZINC000489403631   -0.6600
      6 C6        -10.1880    2.4666   63.8159 C.2     1  ZINC000489403631    0.5100
      7 O7        -11.2310    1.8631   63.6769 O.2     1  ZINC000489403631   -0.4600
      8 C8         -9.9787    3.3404   65.0258 C.3     1  ZINC000489403631    0.1700
      9 C9         -9.5090    4.7263   64.5789 C.3     1  ZINC000489403631   -0.1700
     10 C10       -11.2951    3.4712   65.7943 C.3     1  ZINC000489403631   -0.1700
     11 N11        -8.9643    2.7374   65.8940 N.pl3   1  ZINC000489403631   -0.3400
     12 C12        -8.6883    1.4205   65.9966 C.2     1  ZINC000489403631    0.1500
     13 C13        -7.6922    1.2771   66.9012 C.2     1  ZINC000489403631   -0.1900
     14 N14        -7.0756   -0.0010   67.3223 N.pl3   1  ZINC000489403631    0.0700
     15 O15        -7.3504   -1.0323   66.7354 O.2     1  ZINC000489403631   -0.1700
     16 O16        -6.2934   -0.0213   68.2558 O.2     1  ZINC000489403631   -0.1600
     17 C17        -7.3476    2.5501   67.3675 C.2     1  ZINC000489403631    0.1000
     18 N18        -8.1054    3.4266   66.7598 N.2     1  ZINC000489403631   -0.2200
     19 C19        -8.8400    0.2791   61.7131 C.ar    1  ZINC000489403631   -0.1100
     20 C20        -9.0326   -0.5213   60.6043 C.ar    1  ZINC000489403631   -0.1700
     21 C21        -9.8011   -0.0643   59.5437 C.ar    1  ZINC000489403631    0.1000
     22 O22        -9.9903   -0.8527   58.4523 O.3     1  ZINC000489403631   -0.2500
     23 C23       -11.0991   -1.6344   58.4156 C.ar    1  ZINC000489403631    0.1400
     24 C24       -11.2992   -2.5420   57.3780 C.ar    1  ZINC000489403631   -0.2000
     25 C25       -12.4394   -3.3187   57.3767 C.ar    1  ZINC000489403631    0.1200
     26 N26       -13.3332   -3.2094   58.3415 N.ar    1  ZINC000489403631   -0.4900
     27 C27       -13.1793   -2.3616   59.3411 C.ar    1  ZINC000489403631    0.1200
     28 C28       -12.0634   -1.5538   59.4175 C.ar    1  ZINC000489403631   -0.1800
     29 H29       -12.2404    1.4263   58.5935 H       1  ZINC000489403631    0.0700
     30 H30       -11.1120    2.7844   58.3688 H       1  ZINC000489403631    0.0700
     31 H31       -10.8389    1.2491   57.5106 H       1  ZINC000489403631    0.0700
     32 H32       -10.6198    2.9864   60.7379 H       1  ZINC000489403631    0.1500
     33 H33        -8.3824    2.8384   62.9997 H       1  ZINC000489403631    0.4100
     34 H34       -10.2638    5.1748   63.9329 H       1  ZINC000489403631    0.1000
     35 H35        -9.3576    5.3582   65.4540 H       1  ZINC000489403631    0.0900
     36 H36        -8.5711    4.6330   64.0314 H       1  ZINC000489403631    0.0800
     37 H37       -11.6298    2.4840   66.1127 H       1  ZINC000489403631    0.0800
     38 H38       -11.1437    4.1032   66.6694 H       1  ZINC000489403631    0.0900
     39 H39       -12.0498    3.9199   65.1484 H       1  ZINC000489403631    0.0900
     40 H40        -9.1754    0.6237   65.4542 H       1  ZINC000489403631    0.2000
     41 H41        -6.5846    2.7714   68.0988 H       1  ZINC000489403631    0.2100
     42 H42        -8.2450   -0.0784   62.5405 H       1  ZINC000489403631    0.1300
     43 H43        -8.5884   -1.5049   60.5648 H       1  ZINC000489403631    0.1300
     44 H44       -10.5719   -2.6361   56.5852 H       1  ZINC000489403631    0.1400
     45 H45       -12.6028   -4.0248   56.5760 H       1  ZINC000489403631    0.1600
     46 H46       -13.9344   -2.3023   60.1110 H       1  ZINC000489403631    0.1700
     47 H47       -11.9434   -0.8623   60.2384 H       1  ZINC000489403631    0.1500
@<TRIPOS>BOND
     1     1     2    1
     2     1    29    1
     3     1    30    1
     4     1    31    1
     5     2    21   ar
     6     2     3   ar
     7     3     4   ar
     8     3    32    1
     9     4     5    1
    10     4    19   ar
    11     5     6   am
    12     5    33    1
    13     6     7    2
    14     6     8    1
    15     8     9    1
    16     8    10    1
    17     8    11    1
    18     9    34    1
    19     9    35    1
    20     9    36    1
    21    10    37    1
    22    10    38    1
    23    10    39    1
    24    11    18    1
    25    11    12    1
    26    12    13    2
    27    12    40    1
    28    13    14    1
    29    13    17    1
    30    14    15    2
    31    14    16    2
    32    17    18    2
    33    17    41    1
    34    19    20   ar
    35    19    42    1
    36    20    21   ar
    37    20    43    1
    38    21    22    1
    39    22    23    1
    40    23    28   ar
    41    23    24   ar
    42    24    25   ar
    43    24    44    1
    44    25    26   ar
    45    25    45    1
    46    26    27   ar
    47    27    28   ar
    48    27    46    1
    49    28    47    1
@<TRIPOS>SUBSTRUCTURE
     1 ZINC000489403631        1 TEMP              0 ****  ****    0 ROOT


##########                                Name:    ZINC000465392830
##########                DOCK_Rotatable_Bonds:                   8
##########                         Heavy_Atoms:                  29
##########                    Molecular_Weight:             419.588
##########                DOCK_Rotatable_Bonds:                   8
##########                       Formal_Charge:           0.0199996
##########                     HBond_Acceptors:                   7
##########                        HBond_Donors:                   0
##########                         Heavy_Atoms:                  29
##########                          Grid_Score:          -30.089571
##########                     Grid_vdw_energy:          -30.366093
##########                      Grid_es_energy:            0.276522
##########           Internal_energy_repulsive:           30.779768

@<TRIPOS>MOLECULE
ZINC000465392830
 62 64 1 0 0
SMALL
USER_CHARGES


@<TRIPOS>ATOM
      1 C1         -8.7696   -1.7828   59.7740 C.3     1  ZINC000465392830    0.0400
      2 O2         -8.9935   -0.4431   60.2873 O.3     1  ZINC000465392830   -0.3600
      3 C3        -10.1438    0.1570   59.9434 C.2     1  ZINC000465392830    0.4600
      4 O4        -10.9379   -0.4184   59.2376 O.2     1  ZINC000465392830   -0.4900
      5 C5        -10.4448    1.5485   60.4377 C.3     1  ZINC000465392830    0.1500
      6 H6        -11.2192    2.0020   59.8190 H       1  ZINC000465392830    0.1100
      7 C7        -10.9122    1.4938   61.9074 C.3     1  ZINC000465392830   -0.1100
      8 C8        -10.2495    2.7512   62.5298 C.3     1  ZINC000465392830   -0.0900
      9 H9        -10.8427    3.6440   62.3317 H       1  ZINC000465392830    0.1000
     10 C10       -10.0266    2.5667   64.0322 C.3     1  ZINC000465392830   -0.0800
     11 C11        -9.3119    3.7962   64.5964 C.3     1  ZINC000465392830   -0.1200
     12 C12        -9.0889    3.6118   66.0988 C.3     1  ZINC000465392830   -0.1200
     13 C13       -10.4393    3.4415   66.7976 C.3     1  ZINC000465392830   -0.1200
     14 C14       -11.1540    2.2120   66.2334 C.3     1  ZINC000465392830   -0.1200
     15 C15       -11.3769    2.3964   64.7310 C.3     1  ZINC000465392830   -0.1200
     16 C16        -8.9008    2.8005   61.7695 C.3     1  ZINC000465392830    0.1000
     17 N17        -9.2256    2.3691   60.3942 N.am    1  ZINC000465392830   -0.6100
     18 C18        -8.5196    2.6747   59.2876 C.2     1  ZINC000465392830    0.5400
     19 O19        -7.5249    3.3632   59.3737 O.2     1  ZINC000465392830   -0.5300
     20 C20        -8.9662    2.1607   57.9432 C.3     1  ZINC000465392830   -0.1300
     21 C21        -8.0662    0.9991   57.5167 C.3     1  ZINC000465392830   -0.0600
     22 C22        -7.8642    1.0421   56.0238 C.ar    1  ZINC000465392830   -0.2000
     23 C23        -6.8193    1.7663   55.4713 C.ar    1  ZINC000465392830    0.2000
     24 C24        -5.8647    2.5245   56.3573 C.3     1  ZINC000465392830   -0.1100
     25 N25        -6.6700    1.7835   54.1574 N.ar    1  ZINC000465392830   -0.5000
     26 C26        -7.5054    1.1187   53.3718 C.ar    1  ZINC000465392830    0.3000
     27 S27        -7.2693    1.1689   51.6264 S.3     1  ZINC000465392830    0.0000
     28 C28        -5.6238    1.9191   51.5533 C.3     1  ZINC000465392830   -0.1400
     29 N29        -8.5141    0.4164   53.8684 N.ar    1  ZINC000465392830   -0.5300
     30 C30        -8.7160    0.3537   55.1740 C.ar    1  ZINC000465392830    0.2000
     31 C31        -9.8651   -0.4469   55.7304 C.3     1  ZINC000465392830   -0.1100
     32 H32        -9.5615   -2.4439   60.1262 H       1  ZINC000465392830    0.0600
     33 H33        -8.7735   -1.7596   58.6842 H       1  ZINC000465392830    0.0600
     34 H34        -7.8059   -2.1505   60.1261 H       1  ZINC000465392830    0.1000
     35 H35       -11.9984    1.5598   61.9693 H       1  ZINC000465392830    0.1000
     36 H36       -10.5514    0.5873   62.3933 H       1  ZINC000465392830    0.0800
     37 H37        -9.4150    1.6807   64.2027 H       1  ZINC000465392830    0.0800
     38 H38        -8.3498    3.9176   64.0986 H       1  ZINC000465392830    0.0600
     39 H39        -9.9235    4.6822   64.4260 H       1  ZINC000465392830    0.0700
     40 H40        -8.4772    2.7258   66.2693 H       1  ZINC000465392830    0.0600
     41 H41        -8.5797    4.4878   66.5008 H       1  ZINC000465392830    0.0600
     42 H42       -10.2805    3.3101   67.8680 H       1  ZINC000465392830    0.0600
     43 H43       -11.0509    4.3275   66.6272 H       1  ZINC000465392830    0.0600
     44 H44       -10.5424    1.3260   66.4039 H       1  ZINC000465392830    0.0600
     45 H45       -12.1161    2.0907   66.7312 H       1  ZINC000465392830    0.0600
     46 H46       -11.9887    3.2824   64.5605 H       1  ZINC000465392830    0.0700
     47 H47       -11.8862    1.5205   64.3291 H       1  ZINC000465392830    0.0600
     48 H48        -8.5056    3.8163   61.7635 H       1  ZINC000465392830    0.0900
     49 H49        -8.1840    2.1163   62.2236 H       1  ZINC000465392830    0.0800
     50 H50        -9.9978    1.8152   58.0107 H       1  ZINC000465392830    0.1000
     51 H51        -8.8987    2.9618   57.2072 H       1  ZINC000465392830    0.1000
     52 H52        -7.1014    1.0845   58.0165 H       1  ZINC000465392830    0.0900
     53 H53        -8.5361    0.0551   57.7927 H       1  ZINC000465392830    0.0900
     54 H54        -5.0297    1.8785   56.6284 H       1  ZINC000465392830    0.0900
     55 H55        -5.4899    3.3981   55.8238 H       1  ZINC000465392830    0.0900
     56 H56        -6.3840    2.8454   57.2603 H       1  ZINC000465392830    0.0900
     57 H57        -5.6510    2.9014   52.0250 H       1  ZINC000465392830    0.0900
     58 H58        -4.9110    1.2835   52.0786 H       1  ZINC000465392830    0.0900
     59 H59        -5.3184    2.0243   50.5122 H       1  ZINC000465392830    0.1100
     60 H60        -9.5381   -1.4696   55.9181 H       1  ZINC000465392830    0.0900
     61 H61       -10.2034    0.0034   56.6636 H       1  ZINC000465392830    0.0900
     62 H62       -10.6848   -0.4535   55.0120 H       1  ZINC000465392830    0.0800
@<TRIPOS>BOND
     1     1     2    1
     2     1    32    1
     3     1    33    1
     4     1    34    1
     5     2     3    1
     6     3     4    2
     7     3     5    1
     8     5     6    1
     9     5    17    1
    10     5     7    1
    11     7     8    1
    12     7    35    1
    13     7    36    1
    14     8     9    1
    15     8    10    1
    16     8    16    1
    17    10    15    1
    18    10    11    1
    19    10    37    1
    20    11    12    1
    21    11    38    1
    22    11    39    1
    23    12    13    1
    24    12    40    1
    25    12    41    1
    26    13    14    1
    27    13    42    1
    28    13    43    1
    29    14    15    1
    30    14    44    1
    31    14    45    1
    32    15    46    1
    33    15    47    1
    34    16    17    1
    35    16    48    1
    36    16    49    1
    37    17    18   am
    38    18    19    2
    39    18    20    1
    40    20    21    1
    41    20    50    1
    42    20    51    1
    43    21    22    1
    44    21    52    1
    45    21    53    1
    46    22    30   ar
    47    22    23   ar
    48    23    24    1
    49    23    25   ar
    50    24    54    1
    51    24    55    1
    52    24    56    1
    53    25    26   ar
    54    26    27    1
    55    26    29   ar
    56    27    28    1
    57    28    57    1
    58    28    58    1
    59    28    59    1
    60    29    30   ar
    61    30    31    1
    62    31    60    1
    63    31    61    1
    64    31    62    1
@<TRIPOS>SUBSTRUCTURE
     1 ZINC000465392830        1 TEMP              0 ****  ****    0 ROOT


##########                                Name:    ZINC001109404798
##########                DOCK_Rotatable_Bonds:                   7
##########                         Heavy_Atoms:                  25
##########                    Molecular_Weight:              360.48
##########                DOCK_Rotatable_Bonds:                   7
##########                       Formal_Charge:           0.0100002
##########                     HBond_Acceptors:                   7
##########                        HBond_Donors:                   1
##########                         Heavy_Atoms:                  25
##########                          Grid_Score:          -30.065027
##########                     Grid_vdw_energy:          -30.651781
##########                      Grid_es_energy:            0.586754
##########           Internal_energy_repulsive:           33.880749

@<TRIPOS>MOLECULE
ZINC001109404798
 49 52 1 0 0
SMALL
USER_CHARGES


@<TRIPOS>ATOM
      1 C1         -8.9504   -0.2111   66.2992 C.3     1  ZINC001109404798   -0.0600
      2 C2         -8.9005   -0.0387   64.8029 C.2     1  ZINC001109404798    0.1700
      3 N3         -8.0240   -0.5600   63.9975 N.2     1  ZINC001109404798   -0.3900
      4 O4         -8.2580   -0.2324   62.8533 O.3     1  ZINC001109404798    0.1000
      5 C5         -9.3388    0.5529   62.8190 C.2     1  ZINC001109404798    0.1900
      6 C6         -9.9603    1.1716   61.5935 C.3     1  ZINC001109404798    0.1600
      7 H7         -9.4034    2.0665   61.3160 H       1  ZINC001109404798    0.1000
      8 C8        -11.4130    1.5473   61.8927 C.3     1  ZINC001109404798   -0.1500
      9 N9         -9.9221    0.2078   60.4855 N.3     1  ZINC001109404798   -0.4800
     10 C10        -8.5041   -0.0663   60.0570 C.3     1  ZINC001109404798    0.0400
     11 H11        -7.8633   -0.5342   60.8045 H       1  ZINC001109404798    0.1100
     12 C12        -8.0583    1.3485   59.5789 C.3     1  ZINC001109404798   -0.1600
     13 C13        -9.3576    1.9613   59.0011 C.3     1  ZINC001109404798   -0.1600
     14 C14       -10.4148    0.8348   59.2073 C.3     1  ZINC001109404798    0.0400
     15 H15       -11.4552    1.1601   59.2070 H       1  ZINC001109404798    0.1200
     16 C16       -10.0510   -0.2579   58.1574 C.3     1  ZINC001109404798    0.1500
     17 H17       -10.8384   -1.0093   58.0971 H       1  ZINC001109404798    0.1000
     18 N18        -9.8156    0.3467   56.8440 N.am    1  ZINC001109404798   -0.7200
     19 C19        -9.7640   -0.4303   55.7440 C.2     1  ZINC001109404798    0.5100
     20 O20        -9.9140   -1.6299   55.8412 O.2     1  ZINC001109404798   -0.5300
     21 C21        -9.5200    0.1914   54.3930 C.3     1  ZINC001109404798   -0.1300
     22 C22        -8.6660    1.4502   54.5575 C.3     1  ZINC001109404798   -0.0400
     23 C23        -8.1407    1.8803   53.2122 C.2     1  ZINC001109404798   -0.1000
     24 C24        -7.5353    1.0364   52.3751 C.2     1  ZINC001109404798   -0.2100
     25 S25        -7.0623    1.8931   50.9137 S.3     1  ZINC001109404798    0.1000
     26 C26        -7.7331    3.3934   51.5402 C.2     1  ZINC001109404798   -0.2100
     27 C27        -8.2551    3.1796   52.7489 C.2     1  ZINC001109404798   -0.1300
     28 C28        -8.7401   -0.8957   58.7588 C.3     1  ZINC001109404798   -0.1100
     29 N29        -9.7583    0.6781   64.0552 N.2     1  ZINC001109404798   -0.4800
     30 H30        -9.5560   -1.0835   66.5444 H       1  ZINC001109404798    0.0900
     31 H31        -7.9397   -0.3510   66.6827 H       1  ZINC001109404798    0.0900
     32 H32        -9.3915    0.6765   66.7526 H       1  ZINC001109404798    0.0900
     33 H33       -11.4413    2.2624   62.7149 H       1  ZINC001109404798    0.0700
     34 H34       -11.8625    1.9949   61.0063 H       1  ZINC001109404798    0.0800
     35 H35       -11.9700    0.6524   62.1703 H       1  ZINC001109404798    0.0800
     36 H36        -7.6953    1.9407   60.4189 H       1  ZINC001109404798    0.0700
     37 H37        -7.2945    1.2691   58.8054 H       1  ZINC001109404798    0.0800
     38 H38        -9.6385    2.8572   59.5547 H       1  ZINC001109404798    0.0700
     39 H39        -9.2377    2.1857   57.9412 H       1  ZINC001109404798    0.0800
     40 H40        -9.6968    1.3062   56.7660 H       1  ZINC001109404798    0.4000
     41 H41        -8.9981   -0.5209   53.7541 H       1  ZINC001109404798    0.0900
     42 H42       -10.4742    0.4567   53.9375 H       1  ZINC001109404798    0.1000
     43 H43        -9.2742    2.2488   54.9824 H       1  ZINC001109404798    0.0800
     44 H44        -7.8295    1.2372   55.2231 H       1  ZINC001109404798    0.0800
     45 H45        -7.3618   -0.0124   52.5658 H       1  ZINC001109404798    0.1600
     46 H46        -7.7275    4.3416   51.0232 H       1  ZINC001109404798    0.1600
     47 H47        -8.7243    3.9629   53.3259 H       1  ZINC001109404798    0.1400
     48 H48        -7.8999   -0.7598   58.0777 H       1  ZINC001109404798    0.0800
     49 H49        -8.8923   -1.9530   58.9759 H       1  ZINC001109404798    0.0900
@<TRIPOS>BOND
     1     1     2    1
     2     1    30    1
     3     1    31    1
     4     1    32    1
     5     2    29    1
     6     2     3    2
     7     3     4    1
     8     4     5    1
     9     5     6    1
    10     5    29    2
    11     6     7    1
    12     6     8    1
    13     6     9    1
    14     8    33    1
    15     8    34    1
    16     8    35    1
    17     9    14    1
    18     9    10    1
    19    10    11    1
    20    10    28    1
    21    10    12    1
    22    12    13    1
    23    12    36    1
    24    12    37    1
    25    13    14    1
    26    13    38    1
    27    13    39    1
    28    14    15    1
    29    14    16    1
    30    16    17    1
    31    16    18    1
    32    16    28    1
    33    18    19   am
    34    18    40    1
    35    19    20    2
    36    19    21    1
    37    21    22    1
    38    21    41    1
    39    21    42    1
    40    22    23    1
    41    22    43    1
    42    22    44    1
    43    23    27    1
    44    23    24    2
    45    24    25    1
    46    24    45    1
    47    25    26    1
    48    26    27    2
    49    26    46    1
    50    27    47    1
    51    28    48    1
    52    28    49    1
@<TRIPOS>SUBSTRUCTURE
     1 ZINC001109404798        1 TEMP              0 ****  ****    0 ROOT


##########                                Name:    ZINC000482187991
##########                DOCK_Rotatable_Bonds:                  11
##########                         Heavy_Atoms:                  29
##########                    Molecular_Weight:             407.414
##########                DOCK_Rotatable_Bonds:                  11
##########                       Formal_Charge:           0.0299996
##########                     HBond_Acceptors:                   8
##########                        HBond_Donors:                   1
##########                         Heavy_Atoms:                  29
##########                          Grid_Score:          -30.049009
##########                     Grid_vdw_energy:          -29.657284
##########                      Grid_es_energy:           -0.391726
##########           Internal_energy_repulsive:           58.705559

@<TRIPOS>MOLECULE
ZINC000482187991
 52 53 1 0 0
SMALL
USER_CHARGES


@<TRIPOS>ATOM
      1 C1         -4.2255    4.0553   55.0254 C.3     1  ZINC000482187991    0.0200
      2 O2         -5.4722    3.9466   54.3353 O.3     1  ZINC000482187991   -0.3000
      3 C3         -6.2749    2.9015   54.6715 C.ar    1  ZINC000482187991    0.1400
      4 C4         -6.6224    2.6956   55.9922 C.ar    1  ZINC000482187991   -0.1700
      5 C5         -7.4491    1.6196   56.3372 C.ar    1  ZINC000482187991   -0.1000
      6 C6         -7.8212    1.3976   57.7404 C.2     1  ZINC000482187991    0.4000
      7 O7         -7.0130    1.6015   58.6217 O.2     1  ZINC000482187991   -0.4500
      8 C8         -9.2070    0.9164   58.0855 C.3     1  ZINC000482187991   -0.1500
      9 C9         -9.1321   -0.5173   58.6146 C.3     1  ZINC000482187991   -0.1300
     10 C10       -10.3992   -0.8438   59.3621 C.2     1  ZINC000482187991    0.5200
     11 O11       -10.4408   -1.8120   60.0912 O.2     1  ZINC000482187991   -0.5200
     12 N12       -11.4864   -0.0599   59.2202 N.am    1  ZINC000482187991   -0.7200
     13 C13       -12.7188   -0.3783   59.9455 C.3     1  ZINC000482187991    0.1500
     14 H14       -12.4804   -0.6049   60.9847 H       1  ZINC000482187991    0.1300
     15 C15       -13.3810   -1.5736   59.3100 C.ar    1  ZINC000482187991   -0.1100
     16 C16       -14.1871   -2.4017   60.0684 C.ar    1  ZINC000482187991   -0.1000
     17 C17       -14.7945   -3.4981   59.4854 C.ar    1  ZINC000482187991   -0.1200
     18 C18       -14.5961   -3.7662   58.1439 C.ar    1  ZINC000482187991   -0.1100
     19 C19       -13.7907   -2.9375   57.3852 C.ar    1  ZINC000482187991   -0.1200
     20 C20       -13.1867   -1.8386   57.9672 C.ar    1  ZINC000482187991   -0.1000
     21 C21       -13.6678    0.8204   59.8895 C.3     1  ZINC000482187991    0.2500
     22 F22       -14.8451    0.5158   60.5811 F       1  ZINC000482187991   -0.1900
     23 F23       -13.0534    1.9296   60.4805 F       1  ZINC000482187991   -0.2000
     24 C24        -7.9207    0.7561   55.3411 C.ar    1  ZINC000482187991   -0.1900
     25 C25        -7.5690    0.9684   54.0224 C.ar    1  ZINC000482187991    0.1400
     26 O26        -8.0269    0.1305   53.0540 O.3     1  ZINC000482187991   -0.3000
     27 C27        -9.4150   -0.2070   53.0914 C.3     1  ZINC000482187991    0.0200
     28 C28        -6.7504    2.0433   53.6823 C.ar    1  ZINC000482187991    0.0600
     29 O29        -6.4070    2.2491   52.3843 O.3     1  ZINC000482187991   -0.3100
     30 C30        -6.9214    1.3255   51.4229 C.3     1  ZINC000482187991    0.0400
     31 H31        -3.6846    4.9294   54.6629 H       1  ZINC000482187991    0.1100
     32 H32        -4.4101    4.1598   56.0946 H       1  ZINC000482187991    0.0600
     33 H33        -3.6311    3.1596   54.8451 H       1  ZINC000482187991    0.0600
     34 H34        -6.2564    3.3635   56.7580 H       1  ZINC000482187991    0.1500
     35 H35        -9.6366    1.5638   58.8500 H       1  ZINC000482187991    0.1100
     36 H36        -9.8331    0.9423   57.1937 H       1  ZINC000482187991    0.1100
     37 H37        -9.0152   -1.2073   57.7789 H       1  ZINC000482187991    0.1000
     38 H38        -8.2791   -0.6126   59.2865 H       1  ZINC000482187991    0.1000
     39 H39       -11.4528    0.7152   58.6379 H       1  ZINC000482187991    0.4100
     40 H40       -14.3422   -2.1923   61.1165 H       1  ZINC000482187991    0.1200
     41 H41       -15.4238   -4.1456   60.0781 H       1  ZINC000482187991    0.1300
     42 H42       -15.0701   -4.6231   57.6885 H       1  ZINC000482187991    0.1300
     43 H43       -13.6354   -3.1472   56.3372 H       1  ZINC000482187991    0.1300
     44 H44       -12.5575   -1.1913   57.3745 H       1  ZINC000482187991    0.1300
     45 H45       -13.9053    1.0476   58.8502 H       1  ZINC000482187991    0.1200
     46 H46        -8.5584   -0.0750   55.6035 H       1  ZINC000482187991    0.1500
     47 H47        -9.6440   -0.6990   54.0367 H       1  ZINC000482187991    0.0600
     48 H48       -10.0122    0.7004   52.9999 H       1  ZINC000482187991    0.0600
     49 H49        -9.6477   -0.8798   52.2660 H       1  ZINC000482187991    0.1100
     50 H50        -6.5736    0.3206   51.6620 H       1  ZINC000482187991    0.0500
     51 H51        -8.0111    1.3476   51.4446 H       1  ZINC000482187991    0.0500
     52 H52        -6.5722    1.6039   50.4285 H       1  ZINC000482187991    0.1000
@<TRIPOS>BOND
     1     1     2    1
     2     1    31    1
     3     1    32    1
     4     1    33    1
     5     2     3    1
     6     3    28   ar
     7     3     4   ar
     8     4     5   ar
     9     4    34    1
    10     5     6    1
    11     5    24   ar
    12     6     7    2
    13     6     8    1
    14     8     9    1
    15     8    35    1
    16     8    36    1
    17     9    10    1
    18     9    37    1
    19     9    38    1
    20    10    11    2
    21    10    12   am
    22    12    13    1
    23    12    39    1
    24    13    14    1
    25    13    15    1
    26    13    21    1
    27    15    20   ar
    28    15    16   ar
    29    16    17   ar
    30    16    40    1
    31    17    18   ar
    32    17    41    1
    33    18    19   ar
    34    18    42    1
    35    19    20   ar
    36    19    43    1
    37    20    44    1
    38    21    22    1
    39    21    23    1
    40    21    45    1
    41    24    25   ar
    42    24    46    1
    43    25    26    1
    44    25    28   ar
    45    26    27    1
    46    27    47    1
    47    27    48    1
    48    27    49    1
    49    28    29    1
    50    29    30    1
    51    30    50    1
    52    30    51    1
    53    30    52    1
@<TRIPOS>SUBSTRUCTURE
     1 ZINC000482187991        1 TEMP              0 ****  ****    0 ROOT


##########                                Name:    ZINC000420486261
##########                DOCK_Rotatable_Bonds:                   7
##########                         Heavy_Atoms:                  26
##########                    Molecular_Weight:             353.378
##########                DOCK_Rotatable_Bonds:                   7
##########                       Formal_Charge:        -2.98023e-08
##########                     HBond_Acceptors:                   7
##########                        HBond_Donors:                   0
##########                         Heavy_Atoms:                  26
##########                          Grid_Score:          -30.047520
##########                     Grid_vdw_energy:          -28.310156
##########                      Grid_es_energy:           -1.737364
##########           Internal_energy_repulsive:           13.500461

@<TRIPOS>MOLECULE
ZINC000420486261
 45 47 1 0 0
SMALL
USER_CHARGES


@<TRIPOS>ATOM
      1 C1         -7.5485    3.6853   50.9122 C.3     1  ZINC000420486261    0.0400
      2 O2         -6.1143    3.4847   51.0178 O.3     1  ZINC000420486261   -0.3500
      3 C3         -5.6969    2.3028   51.5102 C.2     1  ZINC000420486261    0.5100
      4 O4         -4.5940    1.8819   51.2257 O.2     1  ZINC000420486261   -0.4900
      5 C5         -6.5829    1.5165   52.3983 C.ar    1  ZINC000420486261   -0.0700
      6 C6         -7.3841    0.4901   51.8873 C.ar    1  ZINC000420486261   -0.0900
      7 C7         -8.1991   -0.2231   52.7490 C.ar    1  ZINC000420486261    0.1100
      8 N8         -8.2305    0.0502   54.0353 N.ar    1  ZINC000420486261   -0.4200
      9 C9         -7.4888    1.0142   54.5667 C.ar    1  ZINC000420486261    0.1900
     10 C10        -7.5634    1.2783   56.0211 C.2     1  ZINC000420486261    0.2200
     11 N11        -8.4841    0.8333   56.8538 N.2     1  ZINC000420486261   -0.4300
     12 C12        -8.1443    1.3250   58.0640 C.2     1  ZINC000420486261    0.2200
     13 C13        -8.8723    1.1053   59.3375 C.ar    1  ZINC000420486261   -0.0600
     14 C14        -8.3884    1.6524   60.5234 C.ar    1  ZINC000420486261   -0.0300
     15 C15        -9.0694    1.4452   61.7058 C.ar    1  ZINC000420486261   -0.1600
     16 C16       -10.2323    0.6952   61.7182 C.ar    1  ZINC000420486261   -0.0600
     17 C17       -10.7214    0.1477   60.5476 C.ar    1  ZINC000420486261   -0.2200
     18 C18       -10.0509    0.3526   59.3520 C.ar    1  ZINC000420486261    0.1700
     19 O19       -10.5306   -0.1848   58.2008 O.3     1  ZINC000420486261   -0.2900
     20 C20       -10.6335   -1.6088   58.1433 C.3     1  ZINC000420486261    0.0600
     21 C21       -10.7973   -2.0499   56.6874 C.3     1  ZINC000420486261   -0.0900
     22 C22       -11.6290   -3.3329   56.6336 C.3     1  ZINC000420486261   -0.1500
     23 C23       -11.5072   -0.9484   55.8976 C.3     1  ZINC000420486261   -0.1500
     24 N24        -7.0535    2.0311   57.9062 N.2     1  ZINC000420486261   -0.3400
     25 O25        -6.7040    2.0115   56.7451 O.3     1  ZINC000420486261    0.1000
     26 C26        -6.6366    1.7763   53.7702 C.ar    1  ZINC000420486261   -0.0700
     27 H27        -7.7478    4.6754   50.5022 H       1  ZINC000420486261    0.1100
     28 H28        -7.9740    2.9273   50.2545 H       1  ZINC000420486261    0.0700
     29 H29        -8.0005    3.6037   51.9007 H       1  ZINC000420486261    0.0700
     30 H30        -7.3673    0.2571   50.8328 H       1  ZINC000420486261    0.1600
     31 H31        -8.8195   -1.0165   52.3591 H       1  ZINC000420486261    0.1800
     32 H32        -7.4809    2.2380   60.5177 H       1  ZINC000420486261    0.1400
     33 H33        -8.6930    1.8695   62.6249 H       1  ZINC000420486261    0.1300
     34 H34       -10.7598    0.5368   62.6471 H       1  ZINC000420486261    0.1300
     35 H35       -11.6295   -0.4366   60.5635 H       1  ZINC000420486261    0.1400
     36 H36        -9.7304   -2.0555   58.5588 H       1  ZINC000420486261    0.0600
     37 H37       -11.4987   -1.9341   58.7209 H       1  ZINC000420486261    0.0600
     38 H38        -9.8156   -2.2346   56.2512 H       1  ZINC000420486261    0.0800
     39 H39       -12.6106   -3.1482   57.0698 H       1  ZINC000420486261    0.0600
     40 H40       -11.7455   -3.6471   55.5964 H       1  ZINC000420486261    0.0700
     41 H41       -11.1231   -4.1176   57.1962 H       1  ZINC000420486261    0.0600
     42 H42       -12.4889   -0.7637   56.3338 H       1  ZINC000420486261    0.0500
     43 H43       -10.9147   -0.0343   55.9359 H       1  ZINC000420486261    0.0600
     44 H44       -11.6239   -1.2626   54.8604 H       1  ZINC000420486261    0.0600
     45 H45        -6.0337    2.5599   54.2047 H       1  ZINC000420486261    0.1600
@<TRIPOS>BOND
     1     1     2    1
     2     1    27    1
     3     1    28    1
     4     1    29    1
     5     2     3    1
     6     3     4    2
     7     3     5    1
     8     5    26   ar
     9     5     6   ar
    10     6     7   ar
    11     6    30    1
    12     7     8   ar
    13     7    31    1
    14     8     9   ar
    15     9    10    1
    16     9    26   ar
    17    10    25    1
    18    10    11    2
    19    11    12    1
    20    12    13    1
    21    12    24    2
    22    13    18   ar
    23    13    14   ar
    24    14    15   ar
    25    14    32    1
    26    15    16   ar
    27    15    33    1
    28    16    17   ar
    29    16    34    1
    30    17    18   ar
    31    17    35    1
    32    18    19    1
    33    19    20    1
    34    20    21    1
    35    20    36    1
    36    20    37    1
    37    21    22    1
    38    21    23    1
    39    21    38    1
    40    22    39    1
    41    22    40    1
    42    22    41    1
    43    23    42    1
    44    23    43    1
    45    23    44    1
    46    24    25    1
    47    26    45    1
@<TRIPOS>SUBSTRUCTURE
     1 ZINC000420486261        1 TEMP              0 ****  ****    0 ROOT


##########                                Name:    ZINC000629379364
##########                DOCK_Rotatable_Bonds:                   5
##########                         Heavy_Atoms:                  23
##########                    Molecular_Weight:             386.261
##########                DOCK_Rotatable_Bonds:                   5
##########                       Formal_Charge:               -0.02
##########                     HBond_Acceptors:                   5
##########                        HBond_Donors:                   1
##########                         Heavy_Atoms:                  23
##########                          Grid_Score:          -30.043417
##########                     Grid_vdw_energy:          -27.520220
##########                      Grid_es_energy:           -2.523196
##########           Internal_energy_repulsive:           17.215790

@<TRIPOS>MOLECULE
ZINC000629379364
 44 46 1 0 0
SMALL
USER_CHARGES


@<TRIPOS>ATOM
      1 O1        -12.7976   -1.5611   58.3169 O.co2   1  ZINC000629379364   -0.6800
      2 C2        -11.8323   -2.0304   57.7387 C.2     1  ZINC000629379364    0.5000
      3 O3        -11.9890   -2.6806   56.7192 O.co2   1  ZINC000629379364   -0.6900
      4 C4        -10.4448   -1.8016   58.2805 C.3     1  ZINC000629379364   -0.1600
      5 H5         -9.7597   -2.5465   57.8756 H       1  ZINC000629379364    0.0800
      6 C6        -10.4605   -1.8818   59.8171 C.3     1  ZINC000629379364   -0.1300
      7 C7         -9.1010   -1.5125   60.4027 C.3     1  ZINC000629379364   -0.0100
      8 N8         -8.6424   -0.1907   59.9333 N.4     1  ZINC000629379364   -0.3700
      9 H9         -7.7425    0.0230   60.3364 H       1  ZINC000629379364    0.4200
     10 C10        -9.6172    0.8401   60.3144 C.3     1  ZINC000629379364   -0.0200
     11 C11        -9.0741    1.6430   61.4980 C.3     1  ZINC000629379364    0.0300
     12 O12       -10.1529    2.0083   62.3609 O.3     1  ZINC000629379364   -0.3200
     13 C13        -9.9034    2.0032   63.6968 C.ar    1  ZINC000629379364    0.1600
     14 C14       -10.1597    3.1355   64.4553 C.ar    1  ZINC000629379364   -0.2300
     15 C15        -9.9048    3.1280   65.8155 C.ar    1  ZINC000629379364    0.1500
     16 F16       -10.1542    4.2306   66.5554 F       1  ZINC000629379364   -0.1200
     17 C17        -9.3947    1.9907   66.4183 C.ar    1  ZINC000629379364   -0.1600
     18 C18        -9.1383    0.8609   65.6621 C.ar    1  ZINC000629379364   -0.0300
     19 Br19       -8.4416   -0.6908   66.4886 Br      1  ZINC000629379364   -0.0100
     20 C20        -9.3972    0.8631   64.3044 C.ar    1  ZINC000629379364   -0.1300
     21 C21        -8.5319   -0.2569   58.4850 C.3     1  ZINC000629379364   -0.0100
     22 H22        -7.9253   -1.1151   58.1960 H       1  ZINC000629379364    0.1400
     23 C23        -8.0219    1.0064   57.7839 C.3     1  ZINC000629379364   -0.1300
     24 C24        -8.5567    0.8418   56.3353 C.3     1  ZINC000629379364   -0.1200
     25 C25        -9.7840   -0.0982   56.4271 C.3     1  ZINC000629379364   -0.1100
     26 C26        -9.9687   -0.4060   57.9156 C.3     1  ZINC000629379364   -0.0700
     27 H27       -10.6056    0.3498   58.3751 H       1  ZINC000629379364    0.1000
     28 H28       -11.2142   -1.1954   60.2030 H       1  ZINC000629379364    0.0800
     29 H29       -10.7156   -2.8975   60.1192 H       1  ZINC000629379364    0.1100
     30 H30        -9.1752   -1.4969   61.4902 H       1  ZINC000629379364    0.1200
     31 H31        -8.3710   -2.2665   60.1089 H       1  ZINC000629379364    0.1300
     32 H32        -9.7884    1.5080   59.4701 H       1  ZINC000629379364    0.1400
     33 H33       -10.5563    0.3649   60.5980 H       1  ZINC000629379364    0.1700
     34 H34        -8.3567    1.0359   62.0503 H       1  ZINC000629379364    0.1100
     35 H35        -8.5815    2.5434   61.1310 H       1  ZINC000629379364    0.0900
     36 H36       -10.5576    4.0225   63.9848 H       1  ZINC000629379364    0.1500
     37 H37        -9.1964    1.9857   67.4800 H       1  ZINC000629379364    0.1500
     38 H38        -9.1970   -0.0195   63.7150 H       1  ZINC000629379364    0.1500
     39 H39        -8.4379    1.9001   58.2491 H       1  ZINC000629379364    0.0800
     40 H40        -6.9324    1.0382   57.7912 H       1  ZINC000629379364    0.0900
     41 H41        -8.8565    1.8102   55.9349 H       1  ZINC000629379364    0.0800
     42 H42        -7.7901    0.3955   55.7020 H       1  ZINC000629379364    0.0800
     43 H43       -10.6675    0.3938   56.0205 H       1  ZINC000629379364    0.0900
     44 H44        -9.5885   -1.0274   55.8916 H       1  ZINC000629379364    0.0800
@<TRIPOS>BOND
     1     1     2   ar
     2     2     3   ar
     3     2     4    1
     4     4     5    1
     5     4    26    1
     6     4     6    1
     7     6     7    1
     8     6    28    1
     9     6    29    1
    10     7     8    1
    11     7    30    1
    12     7    31    1
    13     8     9    1
    14     8    10    1
    15     8    21    1
    16    10    11    1
    17    10    32    1
    18    10    33    1
    19    11    12    1
    20    11    34    1
    21    11    35    1
    22    12    13    1
    23    13    20   ar
    24    13    14   ar
    25    14    15   ar
    26    14    36    1
    27    15    16    1
    28    15    17   ar
    29    17    18   ar
    30    17    37    1
    31    18    19    1
    32    18    20   ar
    33    20    38    1
    34    21    22    1
    35    21    26    1
    36    21    23    1
    37    23    24    1
    38    23    39    1
    39    23    40    1
    40    24    25    1
    41    24    41    1
    42    24    42    1
    43    25    26    1
    44    25    43    1
    45    25    44    1
    46    26    27    1
@<TRIPOS>SUBSTRUCTURE
     1 ZINC000629379364        1 TEMP              0 ****  ****    0 ROOT


##########                                Name:    ZINC000291036115
##########                DOCK_Rotatable_Bonds:                   5
##########                         Heavy_Atoms:                  22
##########                    Molecular_Weight:             366.193
##########                DOCK_Rotatable_Bonds:                   5
##########                       Formal_Charge:                0.01
##########                     HBond_Acceptors:                   7
##########                        HBond_Donors:                   0
##########                         Heavy_Atoms:                  22
##########                          Grid_Score:          -30.041929
##########                     Grid_vdw_energy:          -30.474735
##########                      Grid_es_energy:            0.432805
##########           Internal_energy_repulsive:            4.964364

@<TRIPOS>MOLECULE
ZINC000291036115
 35 37 1 0 0
SMALL
USER_CHARGES


@<TRIPOS>ATOM
      1 C1        -11.2852    0.8387   60.9072 C.3     1  <0>        -0.1500
      2 C2        -10.2928   -0.3244   60.9660 C.3     1  <0>        -0.0400
      3 H3        -10.6561   -1.0769   61.6659 H       1  <0>         0.0900
      4 C4         -8.9301    0.1910   61.4331 C.3     1  <0>        -0.0200
      5 C5         -8.9788    0.4692   62.9134 C.2     1  <0>         0.1900
      6 N6         -8.7211   -0.3822   63.8769 N.2     1  <0>        -0.4500
      7 C7         -8.8908    0.3039   65.0212 C.2     1  <0>         0.1500
      8 C8         -8.7122   -0.2331   66.4180 C.3     1  <0>         0.2300
      9 N9         -7.3636    0.0840   66.8943 N.pl3   1  <0>        -0.3900
     10 C10        -6.9713    1.2130   67.5098 C.2     1  <0>         0.2600
     11 N11        -5.6945    1.1081   67.7752 N.2     1  <0>        -0.5400
     12 C12        -5.2389   -0.0682   67.3461 C.2     1  <0>         0.2000
     13 N13        -6.2251   -0.7333   66.8041 N.2     1  <0>        -0.3100
     14 N14        -9.2364    1.5149   64.7012 N.2     1  <0>        -0.3600
     15 O15        -9.2871    1.6322   63.4949 O.3     1  <0>         0.0900
     16 C16       -10.1554   -0.9373   59.5961 C.ar    1  <0>        -0.0900
     17 C17       -10.4532   -2.2733   59.4043 C.ar    1  <0>        -0.0700
     18 C18       -10.3282   -2.8369   58.1483 C.ar    1  <0>        -0.1400
     19 C19        -9.9046   -2.0629   57.0819 C.ar    1  <0>         0.1300
     20 F20        -9.7824   -2.6126   55.8539 F       1  <0>        -0.1200
     21 C21        -9.6062   -0.7235   57.2749 C.ar    1  <0>        -0.1300
     22 Br22       -9.0278    0.3361   55.8195 Br      1  <0>        -0.0200
     23 C23        -9.7371   -0.1611   58.5311 C.ar    1  <0>        -0.0500
     24 H24       -11.3846    1.2819   61.8980 H       1  <0>         0.0600
     25 H25       -10.9219    1.5911   60.2073 H       1  <0>         0.0700
     26 H26       -12.2560    0.4715   60.5744 H       1  <0>         0.0700
     27 H27        -8.1679   -0.5613   61.2297 H       1  <0>         0.1200
     28 H28        -8.6862    1.1091   60.8987 H       1  <0>         0.1100
     29 H29        -9.4480    0.2237   67.0796 H       1  <0>         0.1300
     30 H30        -8.8505   -1.3142   66.4119 H       1  <0>         0.1200
     31 H31        -7.6003    2.0592   67.7438 H       1  <0>         0.2200
     32 H32        -4.2208   -0.4174   67.4357 H       1  <0>         0.2200
     33 H33       -10.7834   -2.8775   60.2364 H       1  <0>         0.1400
     34 H34       -10.5607   -3.8809   57.9991 H       1  <0>         0.1500
     35 H35        -9.5047    0.8826   58.6821 H       1  <0>         0.1400
@<TRIPOS>BOND
     1     1     2    1
     2     1    24    1
     3     1    25    1
     4     1    26    1
     5     2     3    1
     6     2     4    1
     7     2    16    1
     8     4     5    1
     9     4    27    1
    10     4    28    1
    11     5    15    1
    12     5     6    2
    13     6     7    1
    14     7     8    1
    15     7    14    2
    16     8     9    1
    17     8    29    1
    18     8    30    1
    19     9    13    1
    20     9    10    1
    21    10    11    2
    22    10    31    1
    23    11    12    1
    24    12    13    2
    25    12    32    1
    26    14    15    1
    27    16    23   ar
    28    16    17   ar
    29    17    18   ar
    30    17    33    1
    31    18    19   ar
    32    18    34    1
    33    19    20    1
    34    19    21   ar
    35    21    22    1
    36    21    23   ar
    37    23    35    1
@<TRIPOS>SUBSTRUCTURE
     1 <0>         1 TEMP              0 ****  ****    0 ROOT


##########                                Name:    ZINC001207290212
##########                DOCK_Rotatable_Bonds:                   8
##########                         Heavy_Atoms:                  23
##########                    Molecular_Weight:             344.435
##########                DOCK_Rotatable_Bonds:                   8
##########                       Formal_Charge:               -0.03
##########                     HBond_Acceptors:                   9
##########                        HBond_Donors:                   2
##########                         Heavy_Atoms:                  23
##########                          Grid_Score:          -30.039648
##########                     Grid_vdw_energy:          -29.142313
##########                      Grid_es_energy:           -0.897335
##########           Internal_energy_repulsive:            8.069349

@<TRIPOS>MOLECULE
ZINC001207290212
 47 48 1 0 0
SMALL
USER_CHARGES


@<TRIPOS>ATOM
      1 C1        -11.2077   -1.6103   59.7573 C.3     1  ZINC001207290212   -0.1500
      2 C2        -12.1343   -2.3026   58.7557 C.3     1  ZINC001207290212   -0.6300
      3 S3        -11.1748   -3.4680   57.7499 S.o2    1  ZINC001207290212    2.6100
      4 O4        -10.2740   -4.2056   58.5646 O.2     1  ZINC001207290212   -0.9500
      5 O5        -12.0139   -4.1220   56.8078 O.2     1  ZINC001207290212   -0.9500
      6 N6        -10.1945   -2.5059   56.8249 N.am    1  ZINC001207290212   -1.1100
      7 C7        -10.7833   -1.5273   55.9074 C.3     1  ZINC001207290212    0.0900
      8 C8        -10.2800   -0.1492   56.2520 C.2     1  ZINC001207290212    0.5100
      9 O9        -11.0572    0.7054   56.6217 O.2     1  ZINC001207290212   -0.5300
     10 N10        -8.9662    0.1335   56.1494 N.am    1  ZINC001207290212   -0.7200
     11 C11        -8.4767    1.4726   56.4861 C.3     1  ZINC001207290212    0.1400
     12 H12        -9.2355    2.2208   56.2571 H       1  ZINC001207290212    0.1000
     13 C13        -7.1777    1.7760   55.7166 C.3     1  ZINC001207290212    0.0200
     14 N14        -6.1125    1.9722   56.7237 N.3     1  ZINC001207290212   -0.5100
     15 C15        -5.1443    2.9821   56.2760 C.3     1  ZINC001207290212    0.1300
     16 C16        -3.9429    2.9643   57.1855 C.2     1  ZINC001207290212    0.0000
     17 C17        -3.8562    3.5408   58.3957 C.2     1  ZINC001207290212   -0.0700
     18 O18        -2.6197    3.2881   58.8677 O.3     1  ZINC001207290212   -0.2000
     19 C19        -1.9704    2.5646   57.9458 C.2     1  ZINC001207290212    0.1900
     20 C20        -0.5550    2.0609   58.0625 C.3     1  ZINC001207290212   -0.0600
     21 N21        -2.7664    2.3632   56.9346 N.2     1  ZINC001207290212   -0.4700
     22 C22        -6.8033    2.4099   57.9637 C.3     1  ZINC001207290212    0.0400
     23 C23        -8.0886    1.5419   57.9810 C.3     1  ZINC001207290212   -0.1000
     24 H24        -7.8763    0.5460   58.3699 H       1  ZINC001207290212    0.0900
     25 C25        -9.1879    2.2187   58.8021 C.3     1  ZINC001207290212   -0.1400
     26 H26       -10.7497   -2.3577   60.4051 H       1  ZINC001207290212    0.0700
     27 H27       -10.4292   -1.0701   59.2187 H       1  ZINC001207290212    0.0700
     28 H28       -11.7843   -0.9100   60.3616 H       1  ZINC001207290212    0.0800
     29 H29       -12.9128   -2.8428   59.2943 H       1  ZINC001207290212    0.1300
     30 H30       -12.5924   -1.5551   58.1079 H       1  ZINC001207290212    0.1300
     31 H31        -9.2304   -2.5902   56.8906 H       1  ZINC001207290212    0.4300
     32 H32       -10.4996   -1.7722   54.8839 H       1  ZINC001207290212    0.1000
     33 H33       -11.8693   -1.5508   55.9991 H       1  ZINC001207290212    0.1100
     34 H34        -8.3449   -0.5497   55.8526 H       1  ZINC001207290212    0.4100
     35 H35        -6.9256    0.9367   55.0682 H       1  ZINC001207290212    0.0800
     36 H36        -7.3001    2.6827   55.1241 H       1  ZINC001207290212    0.0500
     37 H37        -4.8313    2.7584   55.2562 H       1  ZINC001207290212    0.0600
     38 H38        -5.6079    3.9682   56.3056 H       1  ZINC001207290212    0.1000
     39 H39        -4.6316    4.1019   58.8961 H       1  ZINC001207290212    0.2100
     40 H40        -0.1346    2.3762   59.0175 H       1  ZINC001207290212    0.0900
     41 H41        -0.5508    0.9723   58.0056 H       1  ZINC001207290212    0.1000
     42 H42         0.0445    2.4695   57.2490 H       1  ZINC001207290212    0.1000
     43 H43        -6.1882    2.2045   58.8397 H       1  ZINC001207290212    0.0900
     44 H44        -7.0564    3.4688   57.9097 H       1  ZINC001207290212    0.0500
     45 H45        -9.4059    3.1994   58.3792 H       1  ZINC001207290212    0.0600
     46 H46       -10.0885    1.6050   58.7794 H       1  ZINC001207290212    0.0600
     47 H47        -8.8527    2.3339   59.8329 H       1  ZINC001207290212    0.0600
@<TRIPOS>BOND
     1     1     2    1
     2     1    26    1
     3     1    27    1
     4     1    28    1
     5     2     3    1
     6     2    29    1
     7     2    30    1
     8     3     4    2
     9     3     5    2
    10     3     6   am
    11     6     7    1
    12     6    31    1
    13     7     8    1
    14     7    32    1
    15     7    33    1
    16     8     9    2
    17     8    10   am
    18    10    11    1
    19    10    34    1
    20    11    12    1
    21    11    23    1
    22    11    13    1
    23    13    14    1
    24    13    35    1
    25    13    36    1
    26    14    15    1
    27    14    22    1
    28    15    16    1
    29    15    37    1
    30    15    38    1
    31    16    21    1
    32    16    17    2
    33    17    18    1
    34    17    39    1
    35    18    19    1
    36    19    20    1
    37    19    21    2
    38    20    40    1
    39    20    41    1
    40    20    42    1
    41    22    23    1
    42    22    43    1
    43    22    44    1
    44    23    24    1
    45    23    25    1
    46    25    45    1
    47    25    46    1
    48    25    47    1
@<TRIPOS>SUBSTRUCTURE
     1 ZINC001207290212        1 TEMP              0 ****  ****    0 ROOT


##########                                Name:    ZINC001296589646
##########                DOCK_Rotatable_Bonds:                   8
##########                         Heavy_Atoms:                  29
##########                    Molecular_Weight:             398.548
##########                DOCK_Rotatable_Bonds:                   8
##########                       Formal_Charge:          -0.0200008
##########                     HBond_Acceptors:                   6
##########                        HBond_Donors:                   0
##########                         Heavy_Atoms:                  29
##########                          Grid_Score:          -30.033581
##########                     Grid_vdw_energy:          -29.070702
##########                      Grid_es_energy:           -0.962878
##########           Internal_energy_repulsive:           39.573948

@<TRIPOS>MOLECULE
ZINC001296589646
 63 66 1 0 0
SMALL
USER_CHARGES


@<TRIPOS>ATOM
      1 C1         -7.7089   -0.9677   51.8805 C.3     1  ZINC001296589646   -0.1500
      2 C2         -7.8828    0.4670   52.3830 C.3     1  ZINC001296589646    0.0500
      3 O3         -8.0841    0.4551   53.7977 O.3     1  ZINC001296589646   -0.3600
      4 C4         -7.7701    1.6924   54.4399 C.3     1  ZINC001296589646    0.1800
      5 C5         -7.7949    1.5374   55.9388 C.2     1  ZINC001296589646    0.1500
      6 N6         -6.8821    1.9485   56.7727 N.2     1  ZINC001296589646   -0.2600
      7 N7         -7.2204    1.6531   57.9770 N.2     1  ZINC001296589646   -0.3200
      8 C8         -8.3766    1.0326   57.9758 C.2     1  ZINC001296589646    0.3600
      9 N9         -9.0596    0.5610   59.0857 N.3     1  ZINC001296589646   -0.4300
     10 C10        -8.3387   -0.5775   59.7103 C.3     1  ZINC001296589646    0.0300
     11 C11        -8.9135   -0.6149   61.1486 C.3     1  ZINC001296589646   -0.1200
     12 C12        -9.0833    0.8829   61.4922 C.3     1  ZINC001296589646   -0.1000
     13 H13        -8.2270    1.2391   62.0648 H       1  ZINC001296589646    0.0800
     14 C14       -10.3765    1.1039   62.2793 C.3     1  ZINC001296589646   -0.1400
     15 C15        -9.1533    1.6020   60.1322 C.3     1  ZINC001296589646    0.0500
     16 N16        -8.7822    0.9446   56.6760 N.pl3   1  ZINC001296589646   -0.4600
     17 C17       -10.0150    0.3330   56.1735 C.3     1  ZINC001296589646    0.1000
     18 C18        -9.9051   -1.1899   56.2709 C.3     1  ZINC001296589646   -0.1300
     19 C19       -11.2998   -1.8097   56.1633 C.3     1  ZINC001296589646   -0.0500
     20 H20       -11.8326   -1.3621   55.3244 H       1  ZINC001296589646    0.0800
     21 C21       -11.1719   -3.3179   55.9402 C.3     1  ZINC001296589646   -0.1500
     22 C22       -12.0630   -1.5532   57.4373 C.ar    1  ZINC001296589646   -0.0800
     23 C23       -11.7166   -2.2212   58.5969 C.ar    1  ZINC001296589646   -0.1100
     24 C24       -12.4167   -1.9860   59.7654 C.ar    1  ZINC001296589646   -0.1200
     25 C25       -13.4629   -1.0825   59.7745 C.ar    1  ZINC001296589646   -0.1200
     26 C26       -13.8087   -0.4139   58.6151 C.ar    1  ZINC001296589646   -0.1200
     27 C27       -13.1059   -0.6459   57.4475 C.ar    1  ZINC001296589646   -0.1200
     28 C28        -8.7391    2.8155   53.9799 C.3     1  ZINC001296589646   -0.1400
     29 C29        -8.0557    3.2743   52.6671 C.3     1  ZINC001296589646    0.0600
     30 O30        -6.6458    3.1808   52.9259 O.3     1  ZINC001296589646   -0.3700
     31 C31        -6.4014    2.2260   53.9653 C.3     1  ZINC001296589646    0.0400
     32 H32        -6.7956   -1.3909   52.2988 H       1  ZINC001296589646    0.0600
     33 H33        -8.5636   -1.5679   52.1923 H       1  ZINC001296589646    0.0700
     34 H34        -7.6435   -0.9661   50.7925 H       1  ZINC001296589646    0.0700
     35 H35        -6.9891    1.0451   52.1481 H       1  ZINC001296589646    0.0500
     36 H36        -8.7468    0.9201   51.8969 H       1  ZINC001296589646    0.0600
     37 H37        -8.5575   -1.5066   59.1842 H       1  ZINC001296589646    0.0900
     38 H38        -7.2653   -0.3889   59.7299 H       1  ZINC001296589646    0.0600
     39 H39        -9.8759   -1.1262   61.1661 H       1  ZINC001296589646    0.0800
     40 H40        -8.2105   -1.0902   61.8328 H       1  ZINC001296589646    0.0800
     41 H41       -10.3309    0.5489   63.2163 H       1  ZINC001296589646    0.0600
     42 H42       -10.4955    2.1663   62.4917 H       1  ZINC001296589646    0.0600
     43 H43       -11.2245    0.7538   61.6906 H       1  ZINC001296589646    0.0600
     44 H44        -8.3210    2.2995   60.0377 H       1  ZINC001296589646    0.0800
     45 H45       -10.0999    2.1348   60.0422 H       1  ZINC001296589646    0.0900
     46 H46       -10.8601    0.6753   56.7708 H       1  ZINC001296589646    0.1100
     47 H47       -10.1654    0.6206   55.1329 H       1  ZINC001296589646    0.1000
     48 H48        -9.2788   -1.5616   55.4599 H       1  ZINC001296589646    0.0800
     49 H49        -9.4596   -1.4615   57.2279 H       1  ZINC001296589646    0.0700
     50 H50       -12.1656   -3.7594   55.8637 H       1  ZINC001296589646    0.0600
     51 H51       -10.6200   -3.5033   55.0189 H       1  ZINC001296589646    0.0600
     52 H52       -10.6392   -3.7654   56.7793 H       1  ZINC001296589646    0.0600
     53 H53       -10.8992   -2.9271   58.5899 H       1  ZINC001296589646    0.1200
     54 H54       -12.1464   -2.5083   60.6713 H       1  ZINC001296589646    0.1200
     55 H55       -14.0102   -0.8993   60.6873 H       1  ZINC001296589646    0.1200
     56 H56       -14.6263    0.2917   58.6220 H       1  ZINC001296589646    0.1200
     57 H57       -13.3761   -0.1236   56.5417 H       1  ZINC001296589646    0.1200
     58 H58        -9.7360    2.4192   53.7861 H       1  ZINC001296589646    0.1000
     59 H59        -8.7753    3.6258   54.7080 H       1  ZINC001296589646    0.1000
     60 H60        -8.3340    2.6147   51.8452 H       1  ZINC001296589646    0.0700
     61 H61        -8.3307    4.3036   52.4372 H       1  ZINC001296589646    0.0900
     62 H62        -5.8841    2.7072   54.7952 H       1  ZINC001296589646    0.1000
     63 H63        -5.7983    1.4046   53.5785 H       1  ZINC001296589646    0.0800
@<TRIPOS>BOND
     1     1     2    1
     2     1    32    1
     3     1    33    1
     4     1    34    1
     5     2     3    1
     6     2    35    1
     7     2    36    1
     8     3     4    1
     9     4    31    1
    10     4     5    1
    11     4    28    1
    12     5    16    1
    13     5     6    2
    14     6     7    1
    15     7     8    2
    16     8     9    1
    17     8    16    1
    18     9    15    1
    19     9    10    1
    20    10    11    1
    21    10    37    1
    22    10    38    1
    23    11    12    1
    24    11    39    1
    25    11    40    1
    26    12    13    1
    27    12    14    1
    28    12    15    1
    29    14    41    1
    30    14    42    1
    31    14    43    1
    32    15    44    1
    33    15    45    1
    34    16    17    1
    35    17    18    1
    36    17    46    1
    37    17    47    1
    38    18    19    1
    39    18    48    1
    40    18    49    1
    41    19    20    1
    42    19    21    1
    43    19    22    1
    44    21    50    1
    45    21    51    1
    46    21    52    1
    47    22    27   ar
    48    22    23   ar
    49    23    24   ar
    50    23    53    1
    51    24    25   ar
    52    24    54    1
    53    25    26   ar
    54    25    55    1
    55    26    27   ar
    56    26    56    1
    57    27    57    1
    58    28    29    1
    59    28    58    1
    60    28    59    1
    61    29    30    1
    62    29    60    1
    63    29    61    1
    64    30    31    1
    65    31    62    1
    66    31    63    1
@<TRIPOS>SUBSTRUCTURE
     1 ZINC001296589646        1 TEMP              0 ****  ****    0 ROOT


##########                                Name:    ZINC000032503012
##########                DOCK_Rotatable_Bonds:                   8
##########                         Heavy_Atoms:                  27
##########                    Molecular_Weight:             390.503
##########                DOCK_Rotatable_Bonds:                   8
##########                       Formal_Charge:           0.0099995
##########                     HBond_Acceptors:                   7
##########                        HBond_Donors:                   2
##########                         Heavy_Atoms:                  27
##########                          Grid_Score:          -30.015034
##########                     Grid_vdw_energy:          -27.534569
##########                      Grid_es_energy:           -2.480464
##########           Internal_energy_repulsive:           47.201260

@<TRIPOS>MOLECULE
ZINC000032503012
 53 54 1 0 0
SMALL
USER_CHARGES


@<TRIPOS>ATOM
      1 C1        -14.0354    3.9362   64.8157 C.3     1  ZINC000032503012   -0.1200
      2 C2        -12.7767    3.6086   64.0545 C.ar    1  ZINC000032503012   -0.0500
      3 C3        -12.3535    4.4361   63.0311 C.ar    1  ZINC000032503012   -0.1600
      4 C4        -11.1989    4.1383   62.3306 C.ar    1  ZINC000032503012   -0.0700
      5 C5        -10.4656    3.0128   62.6522 C.ar    1  ZINC000032503012   -0.1500
      6 C6        -10.8883    2.1807   63.6789 C.ar    1  ZINC000032503012    0.1300
      7 O7        -10.1683    1.0729   63.9974 O.3     1  ZINC000032503012   -0.2800
      8 C8         -8.9869    0.8251   63.2329 C.3     1  ZINC000032503012    0.0700
      9 H9         -8.3610    1.7176   63.2316 H       1  ZINC000032503012    0.1100
     10 C10        -8.2128   -0.3397   63.8533 C.3     1  ZINC000032503012   -0.1800
     11 C11        -9.3685    0.4772   61.8171 C.2     1  ZINC000032503012    0.5200
     12 O12       -10.5156    0.6130   61.4475 O.2     1  ZINC000032503012   -0.4900
     13 N13        -8.4351    0.0152   60.9617 N.am    1  ZINC000032503012   -0.6700
     14 C14        -8.7893   -0.3079   59.6472 C.ar    1  ZINC000032503012    0.1300
     15 C15        -8.4476    0.5440   58.6053 C.ar    1  ZINC000032503012   -0.0600
     16 C16        -8.7988    0.2224   57.3087 C.ar    1  ZINC000032503012   -0.1200
     17 C17        -9.4902   -0.9462   57.0478 C.ar    1  ZINC000032503012   -0.0300
     18 C18        -9.8323   -1.7967   58.0833 C.ar    1  ZINC000032503012   -0.6600
     19 S19       -10.7135   -3.2847   57.7456 S.o2    1  ZINC000032503012    2.7000
     20 O20       -11.0634   -3.2401   56.3690 O.2     1  ZINC000032503012   -0.9600
     21 O21        -9.9549   -4.3396   58.3209 O.2     1  ZINC000032503012   -0.9500
     22 N22       -12.1351   -3.2154   58.5920 N.am    1  ZINC000032503012   -1.1100
     23 C23       -13.0879   -2.1324   58.3361 C.3     1  ZINC000032503012    0.1700
     24 C24       -13.2249   -1.9193   56.8273 C.3     1  ZINC000032503012   -0.1900
     25 C25       -14.4507   -2.5024   58.9248 C.3     1  ZINC000032503012   -0.1500
     26 C26       -12.5830   -0.8441   58.9893 C.3     1  ZINC000032503012   -0.1800
     27 C27        -9.4784   -1.4841   59.3811 C.ar    1  ZINC000032503012   -0.0400
     28 C28       -12.0437    2.4847   64.3837 C.ar    1  ZINC000032503012   -0.2100
     29 H29       -13.7900    4.5690   65.6685 H       1  ZINC000032503012    0.0700
     30 H30       -14.7298    4.4623   64.1606 H       1  ZINC000032503012    0.0700
     31 H31       -14.4969    3.0139   65.1687 H       1  ZINC000032503012    0.0700
     32 H32       -12.9257    5.3163   62.7779 H       1  ZINC000032503012    0.1300
     33 H33       -10.8705    4.7860   61.5313 H       1  ZINC000032503012    0.1300
     34 H34        -9.5642    2.7804   62.1046 H       1  ZINC000032503012    0.1300
     35 H35        -7.9367   -0.0881   64.8773 H       1  ZINC000032503012    0.0800
     36 H36        -8.8386   -1.2321   63.8546 H       1  ZINC000032503012    0.0800
     37 H37        -7.3116   -0.5287   63.2701 H       1  ZINC000032503012    0.0800
     38 H38        -7.5175   -0.0935   61.2574 H       1  ZINC000032503012    0.4100
     39 H39        -7.9082    1.4573   58.8085 H       1  ZINC000032503012    0.1400
     40 H40        -8.5333    0.8845   56.4978 H       1  ZINC000032503012    0.1400
     41 H41        -9.7639   -1.1953   56.0331 H       1  ZINC000032503012    0.1500
     42 H42       -12.3370   -3.8920   59.2571 H       1  ZINC000032503012    0.4200
     43 H43       -13.4104   -2.8768   56.3406 H       1  ZINC000032503012    0.0700
     44 H44       -14.0573   -1.2440   56.6297 H       1  ZINC000032503012    0.0800
     45 H45       -12.3043   -1.4855   56.4365 H       1  ZINC000032503012    0.0700
     46 H46       -14.3532   -2.6541   59.9997 H       1  ZINC000032503012    0.0700
     47 H47       -15.1596   -1.6965   58.7345 H       1  ZINC000032503012    0.0700
     48 H48       -14.8104   -3.4201   58.4594 H       1  ZINC000032503012    0.0600
     49 H49       -11.7182   -0.4727   58.4395 H       1  ZINC000032503012    0.0900
     50 H50       -13.3738   -0.0941   58.9724 H       1  ZINC000032503012    0.0700
     51 H51       -12.2973   -1.0478   60.0213 H       1  ZINC000032503012    0.0600
     52 H52        -9.7459   -2.1485   60.1894 H       1  ZINC000032503012    0.1400
     53 H53       -12.3748    1.8385   65.1833 H       1  ZINC000032503012    0.1300
@<TRIPOS>BOND
     1     1     2    1
     2     1    29    1
     3     1    30    1
     4     1    31    1
     5     2    28   ar
     6     2     3   ar
     7     3     4   ar
     8     3    32    1
     9     4     5   ar
    10     4    33    1
    11     5     6   ar
    12     5    34    1
    13     6     7    1
    14     6    28   ar
    15     7     8    1
    16     8     9    1
    17     8    10    1
    18     8    11    1
    19    10    35    1
    20    10    36    1
    21    10    37    1
    22    11    12    2
    23    11    13   am
    24    13    14    1
    25    13    38    1
    26    14    27   ar
    27    14    15   ar
    28    15    16   ar
    29    15    39    1
    30    16    17   ar
    31    16    40    1
    32    17    18   ar
    33    17    41    1
    34    18    19    1
    35    18    27   ar
    36    19    20    2
    37    19    21    2
    38    19    22   am
    39    22    23    1
    40    22    42    1
    41    23    24    1
    42    23    25    1
    43    23    26    1
    44    24    43    1
    45    24    44    1
    46    24    45    1
    47    25    46    1
    48    25    47    1
    49    25    48    1
    50    26    49    1
    51    26    50    1
    52    26    51    1
    53    27    52    1
    54    28    53    1
@<TRIPOS>SUBSTRUCTURE
     1 ZINC000032503012        1 TEMP              0 ****  ****    0 ROOT


##########                                Name:    ZINC001105793963
##########                DOCK_Rotatable_Bonds:                   9
##########                         Heavy_Atoms:                  24
##########                    Molecular_Weight:             337.422
##########                DOCK_Rotatable_Bonds:                   9
##########                       Formal_Charge:          -0.0100003
##########                     HBond_Acceptors:                   8
##########                        HBond_Donors:                   2
##########                         Heavy_Atoms:                  24
##########                          Grid_Score:          -30.010790
##########                     Grid_vdw_energy:          -28.674362
##########                      Grid_es_energy:           -1.336427
##########           Internal_energy_repulsive:           10.272372

@<TRIPOS>MOLECULE
ZINC001105793963
 51 52 1 0 0
SMALL
USER_CHARGES


@<TRIPOS>ATOM
      1 C1        -11.3639   -1.9318   58.9629 C.3     1  ZINC001105793963   -0.1500
      2 C2        -12.0835   -2.5488   57.7618 C.3     1  ZINC001105793963   -0.0300
      3 C3        -11.2615   -2.3313   56.5176 C.2     1  ZINC001105793963    0.1800
      4 N4        -11.1868   -1.2272   55.8143 N.2     1  ZINC001105793963   -0.4800
      5 C5        -10.3414   -1.4982   54.8039 C.2     1  ZINC001105793963    0.1700
      6 C6         -9.9219   -0.5473   53.7126 C.3     1  ZINC001105793963    0.1500
      7 N7         -8.5561   -0.0736   53.9741 N.3     1  ZINC001105793963   -0.6900
      8 C8         -8.1439    0.9219   52.9756 C.3     1  ZINC001105793963    0.0700
      9 C9         -6.7462    1.4405   53.3192 C.3     1  ZINC001105793963   -0.1000
     10 H10        -6.0104    0.6432   53.2134 H       1  ZINC001105793963    0.1000
     11 C11        -6.7217    2.0063   54.7555 C.3     1  ZINC001105793963    0.1100
     12 N12        -5.8265    3.1841   54.6781 N.am    1  ZINC001105793963   -0.6200
     13 C13        -4.9109    3.5874   55.5812 C.2     1  ZINC001105793963    0.5300
     14 O14        -4.2505    4.5829   55.3721 O.2     1  ZINC001105793963   -0.5300
     15 C15        -4.7078    2.8012   56.8507 C.3     1  ZINC001105793963    0.1300
     16 H16        -5.1451    1.8092   56.7378 H       1  ZINC001105793963    0.1100
     17 C17        -3.2102    2.6691   57.1347 C.3     1  ZINC001105793963   -0.1600
     18 N18        -5.3566    3.4968   57.9649 N.am    1  ZINC001105793963   -0.7200
     19 C19        -6.5841    3.1181   58.3727 C.2     1  ZINC001105793963    0.5200
     20 C20        -7.2523    3.8348   59.5176 C.3     1  ZINC001105793963   -0.1700
     21 O21        -7.1510    2.2006   57.8181 O.2     1  ZINC001105793963   -0.5500
     22 C22        -6.1660    3.8181   53.3829 C.3     1  ZINC001105793963    0.1000
     23 C23        -6.3786    2.6333   52.4123 C.3     1  ZINC001105793963   -0.1000
     24 H24        -7.1944    2.8501   51.7227 H       1  ZINC001105793963    0.0900
     25 C25        -5.0916    2.3427   51.6377 C.3     1  ZINC001105793963   -0.1500
     26 N26        -9.9524   -2.7303   54.9417 N.2     1  ZINC001105793963   -0.3700
     27 O27       -10.4650   -3.2250   55.9236 O.3     1  ZINC001105793963    0.0800
     28 H28       -10.3891   -2.4042   59.0843 H       1  ZINC001105793963    0.0600
     29 H29       -11.2315   -0.8627   58.7971 H       1  ZINC001105793963    0.0600
     30 H30       -11.9585   -2.0890   59.8628 H       1  ZINC001105793963    0.0800
     31 H31       -12.2159   -3.6180   57.9276 H       1  ZINC001105793963    0.1100
     32 H32       -13.0583   -2.0765   57.6404 H       1  ZINC001105793963    0.1000
     33 H33        -9.9505   -1.0614   52.7519 H       1  ZINC001105793963    0.1000
     34 H34       -10.6034    0.3032   53.6899 H       1  ZINC001105793963    0.0700
     35 H35        -8.4748    0.2970   54.9091 H       1  ZINC001105793963    0.3500
     36 H36        -8.1279    0.4608   51.9880 H       1  ZINC001105793963    0.0800
     37 H37        -8.8502    1.7523   52.9773 H       1  ZINC001105793963    0.0400
     38 H38        -7.7230    2.3093   55.0617 H       1  ZINC001105793963    0.0700
     39 H39        -6.3187    1.2674   55.4482 H       1  ZINC001105793963    0.0900
     40 H40        -3.0632    2.1005   58.0531 H       1  ZINC001105793963    0.0800
     41 H41        -2.7274    2.1516   56.3057 H       1  ZINC001105793963    0.0800
     42 H42        -2.7729    3.6611   57.2478 H       1  ZINC001105793963    0.0600
     43 H43        -4.9027    4.2298   58.4093 H       1  ZINC001105793963    0.4100
     44 H44        -6.5956    4.6232   59.8855 H       1  ZINC001105793963    0.0800
     45 H45        -8.1894    4.2732   59.1745 H       1  ZINC001105793963    0.1000
     46 H46        -7.4550    3.1265   60.3209 H       1  ZINC001105793963    0.1000
     47 H47        -7.0805    4.4042   53.4748 H       1  ZINC001105793963    0.0800
     48 H48        -5.3438    4.4462   53.0401 H       1  ZINC001105793963    0.0900
     49 H49        -4.2889    2.1154   52.3392 H       1  ZINC001105793963    0.0600
     50 H50        -5.2495    1.4899   50.9776 H       1  ZINC001105793963    0.0600
     51 H51        -4.8195    3.2158   51.0447 H       1  ZINC001105793963    0.0600
@<TRIPOS>BOND
     1     1     2    1
     2     1    28    1
     3     1    29    1
     4     1    30    1
     5     2     3    1
     6     2    31    1
     7     2    32    1
     8     3    27    1
     9     3     4    2
    10     4     5    1
    11     5     6    1
    12     5    26    2
    13     6     7    1
    14     6    33    1
    15     6    34    1
    16     7     8    1
    17     7    35    1
    18     8     9    1
    19     8    36    1
    20     8    37    1
    21     9    10    1
    22     9    23    1
    23     9    11    1
    24    11    12    1
    25    11    38    1
    26    11    39    1
    27    12    13   am
    28    12    22    1
    29    13    14    2
    30    13    15    1
    31    15    16    1
    32    15    17    1
    33    15    18    1
    34    17    40    1
    35    17    41    1
    36    17    42    1
    37    18    19   am
    38    18    43    1
    39    19    20    1
    40    19    21    2
    41    20    44    1
    42    20    45    1
    43    20    46    1
    44    22    23    1
    45    22    47    1
    46    22    48    1
    47    23    24    1
    48    23    25    1
    49    25    49    1
    50    25    50    1
    51    25    51    1
    52    26    27    1
@<TRIPOS>SUBSTRUCTURE
     1 ZINC001105793963        1 TEMP              0 ****  ****    0 ROOT


##########                                Name:    ZINC000863216249
##########                DOCK_Rotatable_Bonds:                   5
##########                         Heavy_Atoms:                  23
##########                    Molecular_Weight:             396.351
##########                DOCK_Rotatable_Bonds:                   5
##########                       Formal_Charge:         -0.00999944
##########                     HBond_Acceptors:                   5
##########                        HBond_Donors:                   1
##########                         Heavy_Atoms:                  23
##########                          Grid_Score:          -30.008261
##########                     Grid_vdw_energy:          -30.640587
##########                      Grid_es_energy:            0.632327
##########           Internal_energy_repulsive:           21.986515

@<TRIPOS>MOLECULE
ZINC000863216249
 45 48 1 0 0
SMALL
USER_CHARGES


@<TRIPOS>ATOM
      1 S1         -9.5413   -1.2695   52.8676 S.2     1  ZINC000863216249   -0.5900
      2 C2         -8.9751   -0.3024   54.1618 C.2     1  ZINC000863216249    0.5600
      3 N3         -9.4695   -0.4807   55.4029 N.am    1  ZINC000863216249   -0.6800
      4 C4        -10.4958   -1.4980   55.6433 C.3     1  ZINC000863216249    0.1200
      5 C5        -10.7288   -1.6416   57.1486 C.3     1  ZINC000863216249    0.0400
      6 N6        -12.0709   -2.1896   57.3862 N.3     1  ZINC000863216249   -0.5300
      7 C7        -12.3524   -2.2884   58.8258 C.3     1  ZINC000863216249    0.0000
      8 C8        -13.7789   -2.8064   59.0271 C.3     1  ZINC000863216249    0.0600
      9 O9        -13.9231   -4.0630   58.3597 O.3     1  ZINC000863216249   -0.3800
     10 C10       -13.6570   -4.0032   56.9558 C.3     1  ZINC000863216249    0.0600
     11 C11       -12.2292   -3.4973   56.7335 C.3     1  ZINC000863216249    0.0200
     12 N12        -8.0308    0.6336   53.9406 N.am    1  ZINC000863216249   -0.5100
     13 C13        -7.4184    0.9195   52.6383 C.3     1  ZINC000863216249    0.1200
     14 C14        -6.4213    2.0499   52.9114 C.3     1  ZINC000863216249   -0.1100
     15 C15        -5.0843    2.1277   52.1845 C.3     1  ZINC000863216249   -0.1500
     16 C16        -6.1773    3.1612   51.8977 C.3     1  ZINC000863216249   -0.1500
     17 C17        -6.5395    2.3341   54.3865 C.ar    1  ZINC000863216249   -0.0700
     18 C18        -5.8896    3.2455   55.1961 C.ar    1  ZINC000863216249   -0.0800
     19 C19        -6.1822    3.3101   56.5457 C.ar    1  ZINC000863216249   -0.1000
     20 C20        -7.1294    2.4587   57.0859 C.ar    1  ZINC000863216249   -0.0700
     21 Br21       -7.5319    2.5456   58.9315 Br      1  ZINC000863216249   -0.0400
     22 C22        -7.7813    1.5467   56.2818 C.ar    1  ZINC000863216249   -0.0900
     23 C23        -7.4951    1.4791   54.9177 C.ar    1  ZINC000863216249    0.1400
     24 H24        -9.1458    0.0647   56.1369 H       1  ZINC000863216249    0.4000
     25 H25       -11.4250   -1.1984   55.1587 H       1  ZINC000863216249    0.0900
     26 H26       -10.1642   -2.4524   55.2343 H       1  ZINC000863216249    0.1000
     27 H27        -9.9818   -2.3147   57.5692 H       1  ZINC000863216249    0.0900
     28 H28       -10.6460   -0.6642   57.6239 H       1  ZINC000863216249    0.0400
     29 H29       -11.6461   -2.9781   59.2882 H       1  ZINC000863216249    0.0500
     30 H30       -12.2543   -1.3044   59.2842 H       1  ZINC000863216249    0.1000
     31 H31       -13.9724   -2.9354   60.0919 H       1  ZINC000863216249    0.1000
     32 H32       -14.4881   -2.0903   58.6119 H       1  ZINC000863216249    0.0600
     33 H33       -13.7624   -4.9978   56.5227 H       1  ZINC000863216249    0.1000
     34 H34       -14.3626   -3.3218   56.4804 H       1  ZINC000863216249    0.0600
     35 H35       -12.0413   -3.3959   55.6647 H       1  ZINC000863216249    0.0900
     36 H36       -11.5210   -4.2063   57.1625 H       1  ZINC000863216249    0.0500
     37 H37        -6.8988    0.0384   52.2620 H       1  ZINC000863216249    0.0900
     38 H38        -8.1765    1.2466   51.9266 H       1  ZINC000863216249    0.0900
     39 H39        -4.2178    2.4571   52.7578 H       1  ZINC000863216249    0.1100
     40 H40        -4.8843    1.3802   51.4168 H       1  ZINC000863216249    0.1100
     41 H41        -6.6961    3.0933   50.9415 H       1  ZINC000863216249    0.1100
     42 H42        -6.0296    4.1702   52.2825 H       1  ZINC000863216249    0.1100
     43 H43        -5.1501    3.9094   54.7735 H       1  ZINC000863216249    0.1400
     44 H44        -5.6725    4.0232   57.1766 H       1  ZINC000863216249    0.1400
     45 H45        -8.5196    0.8845   56.7095 H       1  ZINC000863216249    0.1900
@<TRIPOS>BOND
     1     1     2    2
     2     2     3   am
     3     2    12   am
     4     3     4    1
     5     3    24    1
     6     4     5    1
     7     4    25    1
     8     4    26    1
     9     5     6    1
    10     5    27    1
    11     5    28    1
    12     6    11    1
    13     6     7    1
    14     7     8    1
    15     7    29    1
    16     7    30    1
    17     8     9    1
    18     8    31    1
    19     8    32    1
    20     9    10    1
    21    10    11    1
    22    10    33    1
    23    10    34    1
    24    11    35    1
    25    11    36    1
    26    12    23    1
    27    12    13    1
    28    13    14    1
    29    13    37    1
    30    13    38    1
    31    14    16    1
    32    14    15    1
    33    14    17    1
    34    15    16    1
    35    15    39    1
    36    15    40    1
    37    16    41    1
    38    16    42    1
    39    17    23   ar
    40    17    18   ar
    41    18    19   ar
    42    18    43    1
    43    19    20   ar
    44    19    44    1
    45    20    21    1
    46    20    22   ar
    47    22    23   ar
    48    22    45    1
@<TRIPOS>SUBSTRUCTURE
     1 ZINC000863216249        1 TEMP              0 ****  ****    0 ROOT


##########                                Name:    ZINC000521663393
##########                DOCK_Rotatable_Bonds:                   5
##########                         Heavy_Atoms:                  27
##########                    Molecular_Weight:              386.49
##########                DOCK_Rotatable_Bonds:                   5
##########                       Formal_Charge:               -0.02
##########                     HBond_Acceptors:                   6
##########                        HBond_Donors:                   1
##########                         Heavy_Atoms:                  27
##########                          Grid_Score:          -30.008020
##########                     Grid_vdw_energy:          -29.162426
##########                      Grid_es_energy:           -0.845595
##########           Internal_energy_repulsive:           19.668022

@<TRIPOS>MOLECULE
ZINC000521663393
 50 53 1 0 0
SMALL
USER_CHARGES


@<TRIPOS>ATOM
      1 C1        -10.1149   -2.5658   54.9802 C.3     1  ZINC000521663393   -0.1500
      2 C2        -10.5846   -2.7735   56.4215 C.3     1  ZINC000521663393    0.0800
      3 H3         -9.8715   -3.3852   56.9740 H       1  ZINC000521663393    0.0900
      4 O4        -11.8940   -3.3665   56.4499 O.3     1  ZINC000521663393   -0.2900
      5 C5        -12.5805   -2.8867   57.5231 C.ar    1  ZINC000521663393    0.1400
      6 C6        -13.7049   -3.3986   58.1646 C.ar    1  ZINC000521663393   -0.1800
      7 C7        -14.2518   -2.7338   59.2457 C.ar    1  ZINC000521663393    0.1400
      8 F8        -15.3435   -3.2369   59.8624 F       1  ZINC000521663393   -0.1300
      9 C9        -13.6857   -1.5545   59.6998 C.ar    1  ZINC000521663393   -0.1800
     10 C10       -12.5654   -1.0434   59.0691 C.ar    1  ZINC000521663393   -0.0200
     11 C11       -12.0176   -1.7068   57.9938 C.ar    1  ZINC000521663393   -0.2000
     12 C12       -10.8039   -1.4146   57.1276 C.3     1  ZINC000521663393    0.1700
     13 H13       -11.0219   -0.6296   56.4036 H       1  ZINC000521663393    0.1200
     14 N14        -9.6467   -1.0564   57.9516 N.am    1  ZINC000521663393   -0.7200
     15 C15        -9.2015    0.2156   57.9717 C.2     1  ZINC000521663393    0.5300
     16 O16        -9.7598    1.0640   57.3089 O.2     1  ZINC000521663393   -0.5000
     17 C17        -8.0101    0.5835   58.8179 C.3     1  ZINC000521663393    0.1200
     18 H18        -7.3267   -0.2639   58.8714 H       1  ZINC000521663393    0.0700
     19 C19        -7.3014    1.7624   58.2020 C.ar    1  ZINC000521663393   -0.0900
     20 C20        -6.8757    2.8074   59.0006 C.ar    1  ZINC000521663393   -0.0900
     21 C21        -6.2257    3.8886   58.4356 C.ar    1  ZINC000521663393   -0.1200
     22 C22        -6.0008    3.9247   57.0722 C.ar    1  ZINC000521663393   -0.1100
     23 C23        -6.4256    2.8792   56.2737 C.ar    1  ZINC000521663393   -0.1200
     24 C24        -7.0719    1.7960   56.8393 C.ar    1  ZINC000521663393   -0.1100
     25 N25        -8.4605    0.9355   60.1712 N.3     1  ZINC000521663393   -0.5300
     26 C26        -8.8358   -0.2613   60.9275 C.3     1  ZINC000521663393    0.0500
     27 C27        -8.8722    0.0596   62.4256 C.3     1  ZINC000521663393   -0.0700
     28 S28       -10.1408    1.3310   62.7130 S.3     1  ZINC000521663393   -0.2700
     29 C29        -9.6823    2.6013   61.4945 C.3     1  ZINC000521663393   -0.0700
     30 C30        -9.5344    1.9305   60.1246 C.3     1  ZINC000521663393    0.0600
     31 H31        -9.1531   -2.0530   54.9818 H       1  ZINC000521663393    0.0800
     32 H32       -10.0101   -3.5332   54.4893 H       1  ZINC000521663393    0.0800
     33 H33       -10.8471   -1.9631   54.4427 H       1  ZINC000521663393    0.0700
     34 H34       -14.1515   -4.3181   57.8161 H       1  ZINC000521663393    0.1400
     35 H35       -14.1173   -1.0355   60.5429 H       1  ZINC000521663393    0.1400
     36 H36       -12.1204   -0.1241   59.4202 H       1  ZINC000521663393    0.1300
     37 H37        -9.2009   -1.7347   58.4826 H       1  ZINC000521663393    0.4000
     38 H38        -7.0514    2.7792   60.0658 H       1  ZINC000521663393    0.1300
     39 H39        -5.8938    4.7054   59.0594 H       1  ZINC000521663393    0.1300
     40 H40        -5.4935    4.7697   56.6307 H       1  ZINC000521663393    0.1200
     41 H41        -6.2502    2.9075   55.2084 H       1  ZINC000521663393    0.1300
     42 H42        -7.4038    0.9791   56.2155 H       1  ZINC000521663393    0.1200
     43 H43        -9.8208   -0.5991   60.6054 H       1  ZINC000521663393    0.0500
     44 H44        -8.1059   -1.0497   60.7435 H       1  ZINC000521663393    0.1000
     45 H45        -9.1221   -0.8406   62.9869 H       1  ZINC000521663393    0.1100
     46 H46        -7.8992    0.4346   62.7433 H       1  ZINC000521663393    0.0900
     47 H47       -10.4616    3.3620   61.4476 H       1  ZINC000521663393    0.1100
     48 H48        -8.7360    3.0597   61.7819 H       1  ZINC000521663393    0.1000
     49 H49        -9.2963    2.6856   59.3754 H       1  ZINC000521663393    0.0800
     50 H50       -10.4708    1.4405   59.8584 H       1  ZINC000521663393    0.0500
@<TRIPOS>BOND
     1     1     2    1
     2     1    31    1
     3     1    32    1
     4     1    33    1
     5     2     3    1
     6     2    12    1
     7     2     4    1
     8     4     5    1
     9     5    11   ar
    10     5     6   ar
    11     6     7   ar
    12     6    34    1
    13     7     8    1
    14     7     9   ar
    15     9    10   ar
    16     9    35    1
    17    10    11   ar
    18    10    36    1
    19    11    12    1
    20    12    13    1
    21    12    14    1
    22    14    15   am
    23    14    37    1
    24    15    16    2
    25    15    17    1
    26    17    18    1
    27    17    19    1
    28    17    25    1
    29    19    24   ar
    30    19    20   ar
    31    20    21   ar
    32    20    38    1
    33    21    22   ar
    34    21    39    1
    35    22    23   ar
    36    22    40    1
    37    23    24   ar
    38    23    41    1
    39    24    42    1
    40    25    30    1
    41    25    26    1
    42    26    27    1
    43    26    43    1
    44    26    44    1
    45    27    28    1
    46    27    45    1
    47    27    46    1
    48    28    29    1
    49    29    30    1
    50    29    47    1
    51    29    48    1
    52    30    49    1
    53    30    50    1
@<TRIPOS>SUBSTRUCTURE
     1 ZINC000521663393        1 TEMP              0 ****  ****    0 ROOT


##########                                Name:    ZINC001757264545
##########                DOCK_Rotatable_Bonds:                  11
##########                         Heavy_Atoms:                  25
##########                    Molecular_Weight:             344.497
##########                DOCK_Rotatable_Bonds:                  11
##########                       Formal_Charge:          0.00999946
##########                     HBond_Acceptors:                   4
##########                        HBond_Donors:                   2
##########                         Heavy_Atoms:                  25
##########                          Grid_Score:          -30.001656
##########                     Grid_vdw_energy:          -28.845415
##########                      Grid_es_energy:           -1.156241
##########           Internal_energy_repulsive:           11.851216

@<TRIPOS>MOLECULE
ZINC001757264545
 57 57 1 0 0
SMALL
USER_CHARGES


@<TRIPOS>ATOM
      1 C1         -8.2598    0.1094   63.5489 C.1     1  ZINC001757264545   -0.2100
      2 C2         -8.8663    0.0439   62.5458 C.1     1  ZINC001757264545   -0.1900
      3 C3         -9.6268   -0.0382   61.2882 C.3     1  ZINC001757264545   -0.0100
      4 C4        -10.0891    1.3619   60.8794 C.3     1  ZINC001757264545   -0.1200
      5 C5         -8.8725    2.2135   60.5114 C.3     1  ZINC001757264545   -0.1200
      6 C6         -8.2642    1.6967   59.2061 C.3     1  ZINC001757264545   -0.1000
      7 C7         -7.3844    2.7848   58.5875 C.3     1  ZINC001757264545   -0.1400
      8 C8         -6.8846    2.3226   57.2429 C.2     1  ZINC001757264545    0.5100
      9 O9         -5.8147    1.7582   57.1550 O.2     1  ZINC001757264545   -0.5400
     10 N10        -7.6266    2.5365   56.1383 N.am    1  ZINC001757264545   -0.7300
     11 C11        -7.1415    2.0856   54.8316 C.3     1  ZINC001757264545    0.1400
     12 H12        -6.3279    1.3740   54.9717 H       1  ZINC001757264545    0.1000
     13 C13        -6.6352    3.2883   54.0328 C.3     1  ZINC001757264545   -0.1300
     14 C14        -6.1287    2.8174   52.6679 C.3     1  ZINC001757264545   -0.1200
     15 C15        -7.2705    2.1427   51.9052 C.3     1  ZINC001757264545   -0.1200
     16 C16        -7.7768    0.9400   52.7040 C.3     1  ZINC001757264545   -0.1300
     17 C17        -8.2834    1.4110   54.0687 C.3     1  ZINC001757264545    0.1400
     18 H18        -9.0970    2.1226   53.9285 H       1  ZINC001757264545    0.1000
     19 N19        -8.7682    0.2594   54.8336 N.am    1  ZINC001757264545   -0.7200
     20 C20        -9.9408    0.3342   55.4938 C.2     1  ZINC001757264545    0.6400
     21 O21       -10.5972    1.3572   55.4533 O.2     1  ZINC001757264545   -0.5200
     22 C22       -10.4139   -0.7909   56.2429 C.1     1  ZINC001757264545   -0.2300
     23 C23       -10.8017   -1.7132   56.8570 C.1     1  ZINC001757264545   -0.0500
     24 C24       -11.2879   -2.8697   57.6270 C.3     1  ZINC001757264545    0.0300
     25 C25       -11.6356   -2.4257   59.0492 C.3     1  ZINC001757264545   -0.1400
     26 C26       -12.5356   -3.4433   56.9525 C.3     1  ZINC001757264545   -0.1400
     27 C27       -10.1979   -3.9421   57.6796 C.3     1  ZINC001757264545   -0.1400
     28 H28        -7.7174    0.1680   64.4460 H       1  ZINC001757264545    0.2200
     29 H29       -10.4957   -0.6806   61.4303 H       1  ZINC001757264545    0.0900
     30 H30        -8.9915   -0.4539   60.5060 H       1  ZINC001757264545    0.0900
     31 H31       -10.6196    1.8264   61.7106 H       1  ZINC001757264545    0.0700
     32 H32       -10.7545    1.2881   60.0193 H       1  ZINC001757264545    0.0700
     33 H33        -8.1307    2.1507   61.3077 H       1  ZINC001757264545    0.0700
     34 H34        -9.1806    3.2511   60.3829 H       1  ZINC001757264545    0.0700
     35 H35        -9.0627    1.4363   58.5112 H       1  ZINC001757264545    0.0700
     36 H36        -7.6593    0.8136   59.4118 H       1  ZINC001757264545    0.0700
     37 H37        -6.5356    2.9818   59.2424 H       1  ZINC001757264545    0.0900
     38 H38        -7.9677    3.6972   58.4643 H       1  ZINC001757264545    0.0900
     39 H39        -8.4817    2.9889   56.2085 H       1  ZINC001757264545    0.4000
     40 H40        -7.4489    3.9999   53.8926 H       1  ZINC001757264545    0.0700
     41 H41        -5.8217    3.7689   54.5761 H       1  ZINC001757264545    0.0800
     42 H42        -5.7679    3.6742   52.0989 H       1  ZINC001757264545    0.0700
     43 H43        -5.3150    2.1058   52.8081 H       1  ZINC001757264545    0.0700
     44 H44        -6.9096    1.8073   50.9329 H       1  ZINC001757264545    0.0700
     45 H45        -8.0841    2.8543   51.7650 H       1  ZINC001757264545    0.0700
     46 H46        -6.9632    0.2284   52.8442 H       1  ZINC001757264545    0.0700
     47 H47        -8.5903    0.4594   52.1605 H       1  ZINC001757264545    0.0800
     48 H48        -8.2452   -0.5570   54.8650 H       1  ZINC001757264545    0.4000
     49 H49       -12.4121   -1.6616   59.0118 H       1  ZINC001757264545    0.0600
     50 H50       -11.9956   -3.2820   59.6194 H       1  ZINC001757264545    0.0700
     51 H51       -10.7466   -2.0170   59.5297 H       1  ZINC001757264545    0.0600
     52 H52       -12.2880   -3.7596   55.9392 H       1  ZINC001757264545    0.0600
     53 H53       -12.8958   -4.2997   57.5226 H       1  ZINC001757264545    0.0700
     54 H54       -13.3122   -2.6793   56.9150 H       1  ZINC001757264545    0.0600
     55 H55        -9.3090   -3.5334   58.1601 H       1  ZINC001757264545    0.0600
     56 H56       -10.5581   -4.7985   58.2498 H       1  ZINC001757264545    0.0700
     57 H57        -9.9503   -4.2584   56.6663 H       1  ZINC001757264545    0.0600
@<TRIPOS>BOND
     1     1     2    3
     2     1    28    1
     3     2     3    1
     4     3     4    1
     5     3    29    1
     6     3    30    1
     7     4     5    1
     8     4    31    1
     9     4    32    1
    10     5     6    1
    11     5    33    1
    12     5    34    1
    13     6     7    1
    14     6    35    1
    15     6    36    1
    16     7     8    1
    17     7    37    1
    18     7    38    1
    19     8     9    2
    20     8    10   am
    21    10    11    1
    22    10    39    1
    23    11    12    1
    24    11    17    1
    25    11    13    1
    26    13    14    1
    27    13    40    1
    28    13    41    1
    29    14    15    1
    30    14    42    1
    31    14    43    1
    32    15    16    1
    33    15    44    1
    34    15    45    1
    35    16    17    1
    36    16    46    1
    37    16    47    1
    38    17    18    1
    39    17    19    1
    40    19    20   am
    41    19    48    1
    42    20    21    2
    43    20    22    1
    44    22    23    3
    45    23    24    1
    46    24    25    1
    47    24    26    1
    48    24    27    1
    49    25    49    1
    50    25    50    1
    51    25    51    1
    52    26    52    1
    53    26    53    1
    54    26    54    1
    55    27    55    1
    56    27    56    1
    57    27    57    1
@<TRIPOS>SUBSTRUCTURE
     1 ZINC001757264545        1 TEMP              0 ****  ****    0 ROOT


##########                                Name:    ZINC000566738344
##########                DOCK_Rotatable_Bonds:                   5
##########                         Heavy_Atoms:                  23
##########                    Molecular_Weight:             352.478
##########                DOCK_Rotatable_Bonds:                   5
##########                       Formal_Charge:           0.0100005
##########                     HBond_Acceptors:                   7
##########                        HBond_Donors:                   0
##########                         Heavy_Atoms:                  23
##########                          Grid_Score:          -29.991508
##########                     Grid_vdw_energy:          -29.214823
##########                      Grid_es_energy:           -0.776685
##########           Internal_energy_repulsive:           17.921629

@<TRIPOS>MOLECULE
ZINC000566738344
 43 44 1 0 0
SMALL
USER_CHARGES


@<TRIPOS>ATOM
      1 C1         -9.6299   -0.2544   53.3018 C.3     1  ZINC000566738344   -0.1300
      2 C2         -8.6596    0.3992   54.2517 C.ar    1  ZINC000566738344   -0.0100
      3 C3         -8.8877    0.3549   55.6078 C.ar    1  ZINC000566738344   -0.1000
      4 C4         -7.9917    0.9592   56.4863 C.ar    1  ZINC000566738344   -0.0500
      5 S5         -8.2879    0.9008   58.2222 S.3     1  ZINC000566738344   -0.0300
      6 C6         -9.1203   -0.6962   58.4407 C.3     1  ZINC000566738344   -0.1200
      7 H7         -8.9619   -1.3126   57.5558 H       1  ZINC000566738344    0.1200
      8 C8         -8.5453   -1.4074   59.6672 C.3     1  ZINC000566738344   -0.1300
      9 C9        -10.5972   -0.4701   58.6376 C.2     1  ZINC000566738344    0.5200
     10 O10       -11.0143    0.6449   58.8692 O.2     1  ZINC000566738344   -0.5000
     11 N11       -11.4544   -1.5069   58.5563 N.am    1  ZINC000566738344   -0.6000
     12 C12       -10.9503   -2.8540   58.2784 C.3     1  ZINC000566738344    0.0600
     13 C13       -12.8903   -1.2868   58.7460 C.3     1  ZINC000566738344    0.1500
     14 H14       -13.0575   -0.2893   59.1523 H       1  ZINC000566738344    0.1300
     15 C15       -13.6174   -1.4245   57.3968 C.3     1  ZINC000566738344   -0.1300
     16 C16       -15.1320   -1.5127   57.7163 C.3     1  ZINC000566738344   -0.5900
     17 S17       -15.1695   -2.6362   59.1641 S.o2    1  ZINC000566738344    2.4000
     18 O18       -16.0731   -2.1244   60.1339 O.2     1  ZINC000566738344   -0.9300
     19 O19       -15.2982   -3.9783   58.7154 O.2     1  ZINC000566738344   -0.9300
     20 C20       -13.4527   -2.3432   59.7176 C.3     1  ZINC000566738344   -0.6200
     21 C21        -6.8622    1.6091   55.9957 C.ar    1  ZINC000566738344   -0.1400
     22 C22        -6.6283    1.6568   54.6404 C.ar    1  ZINC000566738344   -0.0400
     23 C23        -7.5232    1.0466   53.7561 C.ar    1  ZINC000566738344   -0.0400
     24 C24        -7.2827    1.0945   52.3452 C.1     1  ZINC000566738344    0.2500
     25 N25        -7.0920    1.1324   51.2259 N.1     1  ZINC000566738344   -0.4100
     26 H26        -9.3350   -1.2908   53.1374 H       1  ZINC000566738344    0.0800
     27 H27       -10.6321   -0.2252   53.7292 H       1  ZINC000566738344    0.0800
     28 H28        -9.6242    0.2800   52.3518 H       1  ZINC000566738344    0.0700
     29 H29        -9.7628   -0.1486   55.9914 H       1  ZINC000566738344    0.1400
     30 H30        -8.7814   -0.8340   60.5637 H       1  ZINC000566738344    0.0800
     31 H31        -8.9814   -2.4032   59.7475 H       1  ZINC000566738344    0.0800
     32 H32        -7.4635   -1.4918   59.5644 H       1  ZINC000566738344    0.0900
     33 H33       -10.7178   -3.3560   59.2177 H       1  ZINC000566738344    0.0700
     34 H34       -11.7094   -3.4223   57.7410 H       1  ZINC000566738344    0.0800
     35 H35       -10.0485   -2.7862   57.6698 H       1  ZINC000566738344    0.0800
     36 H36       -13.4174   -0.5524   56.7743 H       1  ZINC000566738344    0.1100
     37 H37       -13.2900   -2.3306   56.8871 H       1  ZINC000566738344    0.0900
     38 H38       -15.5302   -0.5322   57.9771 H       1  ZINC000566738344    0.1400
     39 H39       -15.6798   -1.9435   56.8781 H       1  ZINC000566738344    0.1400
     40 H40       -12.8726   -3.2639   59.6553 H       1  ZINC000566738344    0.1400
     41 H41       -13.4444   -1.9580   60.7373 H       1  ZINC000566738344    0.1500
     42 H42        -6.1691    2.0764   56.6796 H       1  ZINC000566738344    0.1200
     43 H43        -5.7523    2.1614   54.2605 H       1  ZINC000566738344    0.1400
@<TRIPOS>BOND
     1     1     2    1
     2     1    26    1
     3     1    27    1
     4     1    28    1
     5     2    23   ar
     6     2     3   ar
     7     3     4   ar
     8     3    29    1
     9     4     5    1
    10     4    21   ar
    11     5     6    1
    12     6     7    1
    13     6     8    1
    14     6     9    1
    15     8    30    1
    16     8    31    1
    17     8    32    1
    18     9    10    2
    19     9    11   am
    20    11    12    1
    21    11    13    1
    22    12    33    1
    23    12    34    1
    24    12    35    1
    25    13    14    1
    26    13    20    1
    27    13    15    1
    28    15    16    1
    29    15    36    1
    30    15    37    1
    31    16    17    1
    32    16    38    1
    33    16    39    1
    34    17    18    2
    35    17    19    2
    36    17    20    1
    37    20    40    1
    38    20    41    1
    39    21    22   ar
    40    21    42    1
    41    22    23   ar
    42    22    43    1
    43    23    24    1
    44    24    25    3
@<TRIPOS>SUBSTRUCTURE
     1 ZINC000566738344        1 TEMP              0 ****  ****    0 ROOT


##########                                Name:    ZINC000174621331
##########                DOCK_Rotatable_Bonds:                   8
##########                         Heavy_Atoms:                  25
##########                    Molecular_Weight:             366.438
##########                DOCK_Rotatable_Bonds:                   8
##########                       Formal_Charge:        -5.96046e-08
##########                     HBond_Acceptors:                   8
##########                        HBond_Donors:                   3
##########                         Heavy_Atoms:                  25
##########                          Grid_Score:          -29.966425
##########                     Grid_vdw_energy:          -29.688326
##########                      Grid_es_energy:           -0.278098
##########           Internal_energy_repulsive:           16.104761

@<TRIPOS>MOLECULE
ZINC000174621331
 47 48 1 0 0
SMALL
USER_CHARGES


@<TRIPOS>ATOM
      1 C1        -10.4254   -3.6774   57.6993 C.3     1  ZINC000174621331    0.0300
      2 O2        -10.5663   -3.6582   59.1212 O.3     1  ZINC000174621331   -0.3800
      3 C3        -10.9229   -2.3806   59.6528 C.3     1  ZINC000174621331    0.0500
      4 C4         -9.6821   -1.4873   59.7091 C.3     1  ZINC000174621331    0.2400
      5 H5         -8.8069   -2.0951   59.9392 H       1  ZINC000174621331    0.1300
      6 N6         -9.4937   -0.8308   58.4130 N.am    1  ZINC000174621331   -0.7200
      7 C7         -8.3918   -0.0881   58.1877 C.2     1  ZINC000174621331    0.5600
      8 O8         -7.5552    0.0382   59.0603 O.2     1  ZINC000174621331   -0.5300
      9 C9         -8.2008    0.5729   56.8791 C.ar    1  ZINC000174621331   -0.1600
     10 C10        -7.4934    1.7731   56.7968 C.ar    1  ZINC000174621331   -0.0200
     11 C11        -7.3183    2.3847   55.5724 C.ar    1  ZINC000174621331   -0.1100
     12 C12        -6.5547    3.6806   55.4817 C.3     1  ZINC000174621331   -0.1200
     13 C13        -7.8419    1.8104   54.4279 C.ar    1  ZINC000174621331    0.0400
     14 C14        -7.6463    2.4837   53.0939 C.3     1  ZINC000174621331   -0.1600
     15 C15        -8.5440    0.6203   54.5025 C.ar    1  ZINC000174621331   -0.6800
     16 S16        -9.2061   -0.1029   53.0384 S.o2    1  ZINC000174621331    2.7000
     17 N17        -9.7694   -1.6060   53.4457 N.am    1  ZINC000174621331   -1.2500
     18 O18       -10.3450    0.6712   52.6883 O.2     1  ZINC000174621331   -0.9500
     19 O19        -8.1076   -0.3101   52.1612 O.2     1  ZINC000174621331   -0.9600
     20 C20        -8.7223   -0.0036   55.7197 C.ar    1  ZINC000174621331    0.0400
     21 C21        -9.8636   -0.4423   60.7797 C.2     1  ZINC000174621331   -0.0200
     22 C22        -9.0054   -0.1875   61.7838 C.2     1  ZINC000174621331   -0.1900
     23 C23        -9.5673    0.8620   62.5464 C.2     1  ZINC000174621331   -0.2100
     24 C24       -10.7352    1.1858   61.9628 C.2     1  ZINC000174621331    0.0000
     25 C25       -11.6864    2.2575   62.4295 C.3     1  ZINC000174621331   -0.0800
     26 O26       -10.9067    0.3965   60.8898 O.3     1  ZINC000174621331   -0.1600
     27 H27       -11.3691   -3.3886   57.2366 H       1  ZINC000174621331    0.0400
     28 H28        -9.6455   -2.9763   57.4020 H       1  ZINC000174621331    0.0400
     29 H29       -10.1539   -4.6819   57.3746 H       1  ZINC000174621331    0.0900
     30 H30       -11.6748   -1.9181   59.0135 H       1  ZINC000174621331    0.0700
     31 H31       -11.3269   -2.5050   60.6575 H       1  ZINC000174621331    0.0700
     32 H32       -10.1619   -0.9307   57.7170 H       1  ZINC000174621331    0.4100
     33 H33        -7.0842    2.2224   57.6896 H       1  ZINC000174621331    0.1400
     34 H34        -5.4973    3.4690   55.3229 H       1  ZINC000174621331    0.0800
     35 H35        -6.9366    4.2698   54.6478 H       1  ZINC000174621331    0.0800
     36 H36        -6.6780    4.2407   56.4086 H       1  ZINC000174621331    0.0700
     37 H37        -6.7257    2.1220   52.6358 H       1  ZINC000174621331    0.1100
     38 H38        -8.4905    2.2540   52.4437 H       1  ZINC000174621331    0.0700
     39 H39        -7.5812    3.5622   53.2374 H       1  ZINC000174621331    0.0900
     40 H40       -10.4638   -1.6983   54.1166 H       1  ZINC000174621331    0.4200
     41 H41        -9.4049   -2.3940   53.0133 H       1  ZINC000174621331    0.4200
     42 H42        -9.2702   -0.9327   55.7765 H       1  ZINC000174621331    0.1600
     43 H43        -8.0675   -0.6889   61.9715 H       1  ZINC000174621331    0.1500
     44 H44        -9.1408    1.3163   63.4285 H       1  ZINC000174621331    0.1500
     45 H45       -11.4305    3.2034   61.9523 H       1  ZINC000174621331    0.0800
     46 H46       -12.7059    1.9799   62.1622 H       1  ZINC000174621331    0.0800
     47 H47       -11.6108    2.3642   63.5117 H       1  ZINC000174621331    0.0900
@<TRIPOS>BOND
     1     1     2    1
     2     1    27    1
     3     1    28    1
     4     1    29    1
     5     2     3    1
     6     3     4    1
     7     3    30    1
     8     3    31    1
     9     4     5    1
    10     4     6    1
    11     4    21    1
    12     6     7   am
    13     6    32    1
    14     7     8    2
    15     7     9    1
    16     9    20   ar
    17     9    10   ar
    18    10    11   ar
    19    10    33    1
    20    11    12    1
    21    11    13   ar
    22    12    34    1
    23    12    35    1
    24    12    36    1
    25    13    14    1
    26    13    15   ar
    27    14    37    1
    28    14    38    1
    29    14    39    1
    30    15    16    1
    31    15    20   ar
    32    16    17   am
    33    16    18    2
    34    16    19    2
    35    17    40    1
    36    17    41    1
    37    20    42    1
    38    21    26    1
    39    21    22    2
    40    22    23    1
    41    22    43    1
    42    23    24    2
    43    23    44    1
    44    24    25    1
    45    24    26    1
    46    25    45    1
    47    25    46    1
    48    25    47    1
@<TRIPOS>SUBSTRUCTURE
     1 ZINC000174621331        1 TEMP              0 ****  ****    0 ROOT


##########                                Name:    ZINC000533131987
##########                DOCK_Rotatable_Bonds:                  11
##########                         Heavy_Atoms:                  30
##########                    Molecular_Weight:             419.403
##########                DOCK_Rotatable_Bonds:                  11
##########                       Formal_Charge:                0.01
##########                     HBond_Acceptors:                   9
##########                        HBond_Donors:                   3
##########                         Heavy_Atoms:                  30
##########                          Grid_Score:          -29.948042
##########                     Grid_vdw_energy:          -28.468433
##########                      Grid_es_energy:           -1.479608
##########           Internal_energy_repulsive:           53.226170

@<TRIPOS>MOLECULE
ZINC000533131987
 50 52 1 0 0
SMALL
USER_CHARGES


@<TRIPOS>ATOM
      1 O1         -9.9119   -0.7750   55.9442 O.2     1  ZINC000533131987   -0.5700
      2 C2        -10.0278   -1.6697   55.1290 C.2     1  ZINC000533131987    0.7100
      3 N3        -10.1999   -2.9406   55.5432 N.am    1  ZINC000533131987   -0.7400
      4 C4        -10.2413   -3.2450   56.9756 C.3     1  ZINC000533131987    0.1400
      5 C5        -11.5944   -2.8187   57.5486 C.3     1  ZINC000533131987   -0.0900
      6 H6        -11.8239   -1.8043   57.2222 H       1  ZINC000533131987    0.0900
      7 C7        -12.6821   -3.7729   57.0515 C.3     1  ZINC000533131987    0.0800
      8 O8        -13.9630   -3.2904   57.4621 O.3     1  ZINC000533131987   -0.5600
      9 C9        -11.5375   -2.8621   59.0770 C.3     1  ZINC000533131987   -0.0900
     10 C10       -10.6401   -1.7599   59.5778 C.ar    1  ZINC000533131987    0.0000
     11 C11        -9.2890   -1.9939   59.7514 C.ar    1  ZINC000533131987   -0.1100
     12 C12        -8.4658   -0.9826   60.2108 C.ar    1  ZINC000533131987   -0.0800
     13 C13        -8.9937    0.2625   60.4960 C.ar    1  ZINC000533131987   -0.1300
     14 C14       -10.3451    0.4968   60.3215 C.ar    1  ZINC000533131987   -0.0700
     15 C15       -11.1673   -0.5129   59.8582 C.ar    1  ZINC000533131987   -0.1700
     16 C16       -12.6403   -0.2574   59.6678 C.3     1  ZINC000533131987    0.5100
     17 F17       -12.8424    1.0892   59.3473 F       1  ZINC000533131987   -0.1800
     18 F18       -13.1227   -1.0614   58.6295 F       1  ZINC000533131987   -0.1700
     19 F19       -13.3232   -0.5630   60.8500 F       1  ZINC000533131987   -0.1800
     20 N20        -9.9897   -1.3897   53.8112 N.am    1  ZINC000533131987   -0.6900
     21 C21        -9.8110   -0.0698   53.3811 C.ar    1  ZINC000533131987    0.1600
     22 C22       -10.9136    0.7537   53.1896 C.ar    1  ZINC000533131987   -0.1000
     23 C23       -10.7425    2.0583   52.7648 C.ar    1  ZINC000533131987   -0.1000
     24 C24        -9.4756    2.5510   52.5281 C.ar    1  ZINC000533131987   -0.1000
     25 C25        -8.3613    1.7314   52.7175 C.ar    1  ZINC000533131987    0.0000
     26 C26        -7.0026    2.2569   52.4652 C.2     1  ZINC000533131987    0.2300
     27 N27        -6.6538    3.5217   52.4885 N.2     1  ZINC000533131987   -0.4700
     28 C28        -5.3437    3.6105   52.2135 C.2     1  ZINC000533131987   -0.0400
     29 C29        -4.8785    2.3634   52.0162 C.2     1  ZINC000533131987   -0.0700
     30 O30        -5.9161    1.5189   52.1790 O.3     1  ZINC000533131987   -0.2000
     31 C31        -8.5336    0.4175   53.1515 C.ar    1  ZINC000533131987   -0.1000
     32 H32       -10.2963   -3.6538   54.8928 H       1  ZINC000533131987    0.4000
     33 H33       -10.1053   -4.3163   57.1235 H       1  ZINC000533131987    0.0700
     34 H34        -9.4441   -2.7038   57.4853 H       1  ZINC000533131987    0.0800
     35 H35       -12.6467   -3.8290   55.9635 H       1  ZINC000533131987    0.0400
     36 H36       -12.5156   -4.7646   57.4721 H       1  ZINC000533131987    0.0600
     37 H37       -14.7018   -3.8478   57.1816 H       1  ZINC000533131987    0.3800
     38 H38       -12.5404   -2.7263   59.4819 H       1  ZINC000533131987    0.0800
     39 H39       -11.1433   -3.8260   59.3987 H       1  ZINC000533131987    0.0900
     40 H40        -8.8765   -2.9668   59.5285 H       1  ZINC000533131987    0.1300
     41 H41        -7.4101   -1.1658   60.3472 H       1  ZINC000533131987    0.1300
     42 H42        -8.3507    1.0522   60.8556 H       1  ZINC000533131987    0.1300
     43 H43       -10.7576    1.4696   60.5446 H       1  ZINC000533131987    0.1300
     44 H44       -10.0862   -2.1029   53.1608 H       1  ZINC000533131987    0.4100
     45 H45       -11.9077    0.3735   53.3729 H       1  ZINC000533131987    0.1500
     46 H46       -11.6033    2.6936   52.6174 H       1  ZINC000533131987    0.1400
     47 H47        -9.3460    3.5704   52.1960 H       1  ZINC000533131987    0.1300
     48 H48        -4.7653    4.5210   52.1598 H       1  ZINC000533131987    0.1900
     49 H49        -3.8618    2.0898   51.7760 H       1  ZINC000533131987    0.2200
     50 H50        -7.6754   -0.2211   53.2998 H       1  ZINC000533131987    0.1400
@<TRIPOS>BOND
     1     1     2    2
     2     2     3   am
     3     2    20   am
     4     3     4    1
     5     3    32    1
     6     4     5    1
     7     4    33    1
     8     4    34    1
     9     5     6    1
    10     5     7    1
    11     5     9    1
    12     7     8    1
    13     7    35    1
    14     7    36    1
    15     8    37    1
    16     9    10    1
    17     9    38    1
    18     9    39    1
    19    10    15   ar
    20    10    11   ar
    21    11    12   ar
    22    11    40    1
    23    12    13   ar
    24    12    41    1
    25    13    14   ar
    26    13    42    1
    27    14    15   ar
    28    14    43    1
    29    15    16    1
    30    16    17    1
    31    16    18    1
    32    16    19    1
    33    20    21    1
    34    20    44    1
    35    21    31   ar
    36    21    22   ar
    37    22    23   ar
    38    22    45    1
    39    23    24   ar
    40    23    46    1
    41    24    25   ar
    42    24    47    1
    43    25    26    1
    44    25    31   ar
    45    26    30    1
    46    26    27    2
    47    27    28    1
    48    28    29    2
    49    28    48    1
    50    29    30    1
    51    29    49    1
    52    31    50    1
@<TRIPOS>SUBSTRUCTURE
     1 ZINC000533131987        1 TEMP              0 ****  ****    0 ROOT


##########                                Name:    ZINC000279331220
##########                DOCK_Rotatable_Bonds:                   9
##########                         Heavy_Atoms:                  24
##########                    Molecular_Weight:             328.411
##########                DOCK_Rotatable_Bonds:                   9
##########                       Formal_Charge:          -0.0100001
##########                     HBond_Acceptors:                   5
##########                        HBond_Donors:                   0
##########                         Heavy_Atoms:                  24
##########                          Grid_Score:          -29.937849
##########                     Grid_vdw_energy:          -28.955858
##########                      Grid_es_energy:           -0.981991
##########           Internal_energy_repulsive:           26.464294

@<TRIPOS>MOLECULE
ZINC000279331220
 48 49 1 0 0
SMALL
USER_CHARGES


@<TRIPOS>ATOM
      1 C1         -5.7678    2.3992   51.0200 C.3     1  ZINC000279331220   -0.1500
      2 C2         -5.6907    2.2565   52.5413 C.3     1  ZINC000279331220    0.0500
      3 O3         -7.0121    2.2291   53.0847 O.3     1  ZINC000279331220   -0.3000
      4 C4         -7.7455    1.1045   52.8683 C.ar    1  ZINC000279331220    0.1000
      5 C5         -7.1550   -0.0095   52.2945 C.ar    1  ZINC000279331220   -0.1700
      6 C6         -7.9020   -1.1524   52.0755 C.ar    1  ZINC000279331220   -0.1200
      7 C7         -9.2381   -1.1864   52.4277 C.ar    1  ZINC000279331220   -0.1200
      8 C8         -9.8338   -0.0777   53.0006 C.ar    1  ZINC000279331220   -0.1700
      9 C9         -9.0896    1.0683   53.2283 C.ar    1  ZINC000279331220    0.1000
     10 O10        -9.6739    2.1594   53.7915 O.3     1  ZINC000279331220   -0.3000
     11 C11       -10.2932    1.9784   55.0666 C.3     1  ZINC000279331220    0.0600
     12 C12        -9.2471    1.5093   56.0797 C.3     1  ZINC000279331220   -0.1100
     13 C13        -9.8571    0.4353   56.9825 C.3     1  ZINC000279331220   -0.1300
     14 C14        -8.8128   -0.0612   57.9489 C.2     1  ZINC000279331220    0.5200
     15 O15        -7.7262    0.4752   57.9959 O.2     1  ZINC000279331220   -0.5200
     16 N16        -9.0864   -1.1014   58.7610 N.am    1  ZINC000279331220   -0.5700
     17 C17        -8.0716   -1.5829   59.7017 C.3     1  ZINC000279331220    0.0800
     18 C18       -10.3348   -1.7193   58.7060 C.ar    1  ZINC000279331220    0.3400
     19 N19       -10.5738   -2.6333   57.7792 N.ar    1  ZINC000279331220   -0.4800
     20 C20       -11.7411   -3.2419   57.6921 C.ar    1  ZINC000279331220    0.1100
     21 C21       -12.7623   -2.9440   58.5724 C.ar    1  ZINC000279331220   -0.1600
     22 C22       -12.5521   -1.9906   59.5597 C.ar    1  ZINC000279331220   -0.0700
     23 C23       -11.3155   -1.3737   59.6290 C.ar    1  ZINC000279331220   -0.1200
     24 C24       -11.0393   -0.3331   60.6834 C.3     1  ZINC000279331220   -0.1100
     25 H25        -4.7600    2.4200   50.6055 H       1  ZINC000279331220    0.0800
     26 H26        -6.3147    1.5534   50.6031 H       1  ZINC000279331220    0.0700
     27 H27        -6.2838    3.3255   50.7675 H       1  ZINC000279331220    0.0700
     28 H28        -5.1748    1.3302   52.7938 H       1  ZINC000279331220    0.0600
     29 H29        -5.1438    3.1023   52.9584 H       1  ZINC000279331220    0.0600
     30 H30        -6.1113    0.0148   52.0178 H       1  ZINC000279331220    0.1300
     31 H31        -7.4405   -2.0203   51.6281 H       1  ZINC000279331220    0.1300
     32 H32        -9.8182   -2.0809   52.2548 H       1  ZINC000279331220    0.1300
     33 H33       -10.8781   -0.1067   53.2742 H       1  ZINC000279331220    0.1300
     34 H34       -10.7230    2.9232   55.3991 H       1  ZINC000279331220    0.0600
     35 H35       -11.0811    1.2296   54.9847 H       1  ZINC000279331220    0.0600
     36 H36        -8.3890    1.0947   55.5506 H       1  ZINC000279331220    0.0800
     37 H37        -8.9252    2.3549   56.6875 H       1  ZINC000279331220    0.0800
     38 H38       -10.6936    0.8596   57.5378 H       1  ZINC000279331220    0.1000
     39 H39       -10.2107   -0.3952   56.3713 H       1  ZINC000279331220    0.1000
     40 H40        -8.1120   -0.9891   60.6149 H       1  ZINC000279331220    0.0700
     41 H41        -8.2640   -2.6290   59.9397 H       1  ZINC000279331220    0.0800
     42 H42        -7.0840   -1.4886   59.2504 H       1  ZINC000279331220    0.0800
     43 H43       -11.9002   -3.9824   56.9223 H       1  ZINC000279331220    0.1600
     44 H44       -13.7148   -3.4469   58.4935 H       1  ZINC000279331220    0.1400
     45 H45       -13.3346   -1.7396   60.2604 H       1  ZINC000279331220    0.1400
     46 H46       -10.5589   -0.8036   61.5413 H       1  ZINC000279331220    0.0800
     47 H47       -10.3815    0.4334   60.2738 H       1  ZINC000279331220    0.0700
     48 H48       -11.9778    0.1236   60.9978 H       1  ZINC000279331220    0.0700
@<TRIPOS>BOND
     1     1     2    1
     2     1    25    1
     3     1    26    1
     4     1    27    1
     5     2     3    1
     6     2    28    1
     7     2    29    1
     8     3     4    1
     9     4     9   ar
    10     4     5   ar
    11     5     6   ar
    12     5    30    1
    13     6     7   ar
    14     6    31    1
    15     7     8   ar
    16     7    32    1
    17     8     9   ar
    18     8    33    1
    19     9    10    1
    20    10    11    1
    21    11    12    1
    22    11    34    1
    23    11    35    1
    24    12    13    1
    25    12    36    1
    26    12    37    1
    27    13    14    1
    28    13    38    1
    29    13    39    1
    30    14    15    2
    31    14    16   am
    32    16    17    1
    33    16    18    1
    34    17    40    1
    35    17    41    1
    36    17    42    1
    37    18    23   ar
    38    18    19   ar
    39    19    20   ar
    40    20    21   ar
    41    20    43    1
    42    21    22   ar
    43    21    44    1
    44    22    23   ar
    45    22    45    1
    46    23    24    1
    47    24    46    1
    48    24    47    1
    49    24    48    1
@<TRIPOS>SUBSTRUCTURE
     1 ZINC000279331220        1 TEMP              0 ****  ****    0 ROOT


##########                                Name:    ZINC001500042809
##########                DOCK_Rotatable_Bonds:                   9
##########                         Heavy_Atoms:                  24
##########                    Molecular_Weight:              346.45
##########                DOCK_Rotatable_Bonds:                   9
##########                       Formal_Charge:           0.0200001
##########                     HBond_Acceptors:                   6
##########                        HBond_Donors:                   2
##########                         Heavy_Atoms:                  24
##########                          Grid_Score:          -29.933455
##########                     Grid_vdw_energy:          -31.093821
##########                      Grid_es_energy:            1.160366
##########           Internal_energy_repulsive:           14.756954

@<TRIPOS>MOLECULE
ZINC001500042809
 46 47 1 0 0
SMALL
USER_CHARGES


@<TRIPOS>ATOM
      1 C1         -5.9480    2.5492   51.4947 C.3     1  ZINC001500042809    0.0200
      2 O2         -5.7136    1.7428   52.6509 O.3     1  ZINC001500042809   -0.3100
      3 C3         -6.8045    1.2440   53.2856 C.ar    1  ZINC001500042809    0.1600
      4 C4         -6.9152    1.3574   54.6666 C.ar    1  ZINC001500042809   -0.1600
      5 C5         -8.0203    0.8521   55.3144 C.ar    1  ZINC001500042809   -0.0200
      6 C6         -9.0315    0.2251   54.5815 C.ar    1  ZINC001500042809   -0.1800
      7 C7        -10.2177   -0.3178   55.2719 C.2     1  ZINC001500042809    0.5600
      8 O8        -11.2326   -0.5513   54.6445 O.2     1  ZINC001500042809   -0.5300
      9 N9        -10.1758   -0.5548   56.5981 N.am    1  ZINC001500042809   -0.7300
     10 C10       -11.3526   -1.0953   57.2831 C.3     1  ZINC001500042809    0.1300
     11 C11       -10.9847   -2.4148   57.9646 C.3     1  ZINC001500042809   -0.1200
     12 H12       -11.7888   -2.7128   58.6374 H       1  ZINC001500042809    0.0900
     13 C13       -10.7803   -3.4975   56.9031 C.3     1  ZINC001500042809   -0.1500
     14 C14        -9.6923   -2.2332   58.7633 C.3     1  ZINC001500042809    0.1300
     15 N15        -9.9822   -1.5087   60.0032 N.am    1  ZINC001500042809   -0.7300
     16 C16        -9.0120   -0.7974   60.6107 C.2     1  ZINC001500042809    0.5900
     17 O17        -7.8954   -0.7557   60.1285 O.2     1  ZINC001500042809   -0.5200
     18 C18        -9.3017   -0.0740   61.8523 C.2     1  ZINC001500042809   -0.2800
     19 C19       -10.3045    0.8385   62.0226 C.2     1  ZINC001500042809   -0.0100
     20 C20       -11.2655    1.2273   60.9288 C.3     1  ZINC001500042809   -0.1100
     21 C21       -10.3499    1.3660   63.2913 C.2     1  ZINC001500042809   -0.1500
     22 C22        -9.4175    0.9031   64.1321 C.2     1  ZINC001500042809   -0.2200
     23 S23        -8.4191   -0.2469   63.3631 S.3     1  ZINC001500042809    0.1900
     24 C24        -8.9139    0.1085   53.1940 C.ar    1  ZINC001500042809   -0.0400
     25 C25        -7.8079    0.6206   52.5531 C.ar    1  ZINC001500042809   -0.2200
     26 H26        -6.4807    1.9638   50.7453 H       1  ZINC001500042809    0.0600
     27 H27        -6.5475    3.4163   51.7720 H       1  ZINC001500042809    0.0600
     28 H28        -4.9946    2.8827   51.0850 H       1  ZINC001500042809    0.1000
     29 H29        -6.1333    1.8421   55.2323 H       1  ZINC001500042809    0.1400
     30 H30        -8.1052    0.9400   56.3873 H       1  ZINC001500042809    0.1400
     31 H31        -9.3665   -0.3675   57.0988 H       1  ZINC001500042809    0.4000
     32 H32       -12.1470   -1.2703   56.5575 H       1  ZINC001500042809    0.0800
     33 H33       -11.6958   -0.3825   58.0328 H       1  ZINC001500042809    0.0800
     34 H34       -11.7009   -3.6268   56.3341 H       1  ZINC001500042809    0.0600
     35 H35        -9.9762   -3.1993   56.2302 H       1  ZINC001500042809    0.0600
     36 H36       -10.5181   -4.4375   57.3885 H       1  ZINC001500042809    0.0600
     37 H37        -9.2729   -3.2103   59.0029 H       1  ZINC001500042809    0.0800
     38 H38        -8.9753   -1.6656   58.1700 H       1  ZINC001500042809    0.0800
     39 H39       -10.8726   -1.5410   60.3869 H       1  ZINC001500042809    0.4000
     40 H40       -12.1330    0.5678   60.9559 H       1  ZINC001500042809    0.0800
     41 H41       -11.5877    2.2579   61.0776 H       1  ZINC001500042809    0.0700
     42 H42       -10.7708    1.1372   59.9617 H       1  ZINC001500042809    0.0900
     43 H43       -11.0841    2.1006   63.5874 H       1  ZINC001500042809    0.1500
     44 H44        -9.3136    1.2132   65.1615 H       1  ZINC001500042809    0.1700
     45 H45        -9.6913   -0.3793   52.6246 H       1  ZINC001500042809    0.1300
     46 H46        -7.7179    0.5338   51.4804 H       1  ZINC001500042809    0.1400
@<TRIPOS>BOND
     1     1     2    1
     2     1    26    1
     3     1    27    1
     4     1    28    1
     5     2     3    1
     6     3    25   ar
     7     3     4   ar
     8     4     5   ar
     9     4    29    1
    10     5     6   ar
    11     5    30    1
    12     6     7    1
    13     6    24   ar
    14     7     8    2
    15     7     9   am
    16     9    10    1
    17     9    31    1
    18    10    11    1
    19    10    32    1
    20    10    33    1
    21    11    12    1
    22    11    13    1
    23    11    14    1
    24    13    34    1
    25    13    35    1
    26    13    36    1
    27    14    15    1
    28    14    37    1
    29    14    38    1
    30    15    16   am
    31    15    39    1
    32    16    17    2
    33    16    18    1
    34    18    23    1
    35    18    19    2
    36    19    20    1
    37    19    21    1
    38    20    40    1
    39    20    41    1
    40    20    42    1
    41    21    22    2
    42    21    43    1
    43    22    23    1
    44    22    44    1
    45    24    25   ar
    46    24    45    1
    47    25    46    1
@<TRIPOS>SUBSTRUCTURE
     1 ZINC001500042809        1 TEMP              0 ****  ****    0 ROOT


##########                                Name:    ZINC000001174632
##########                DOCK_Rotatable_Bonds:                   6
##########                         Heavy_Atoms:                  29
##########                    Molecular_Weight:             385.419
##########                DOCK_Rotatable_Bonds:                   6
##########                       Formal_Charge:           0.0400005
##########                     HBond_Acceptors:                   5
##########                        HBond_Donors:                   1
##########                         Heavy_Atoms:                  29
##########                          Grid_Score:          -29.902319
##########                     Grid_vdw_energy:          -29.338648
##########                      Grid_es_energy:           -0.563671
##########           Internal_energy_repulsive:           18.109678

@<TRIPOS>MOLECULE
ZINC000001174632
 48 51 1 0 0
SMALL
USER_CHARGES


@<TRIPOS>ATOM
      1 C1        -13.0256    0.9572   57.6163 C.3     1  ZINC000001174632    0.0400
      2 O2        -12.9262    0.9629   59.0647 O.3     1  ZINC000001174632   -0.3500
      3 C3        -12.9542   -0.2334   59.6847 C.2     1  ZINC000001174632    0.5200
      4 O4        -12.9164   -0.2899   60.8980 O.2     1  ZINC000001174632   -0.5200
      5 C5        -13.0306   -1.4727   58.8913 C.ar    1  ZINC000001174632   -0.2000
      6 C6        -14.2425   -1.8682   58.3201 C.ar    1  ZINC000001174632   -0.0200
      7 C7        -14.3070   -3.0283   57.5787 C.ar    1  ZINC000001174632   -0.1800
      8 C8        -13.1753   -3.8065   57.3958 C.ar    1  ZINC000001174632   -0.0300
      9 C9        -11.9704   -3.4300   57.9538 C.ar    1  ZINC000001174632   -0.1900
     10 C10       -11.8838   -2.2610   58.6996 C.ar    1  ZINC000001174632    0.2600
     11 N11       -10.6726   -1.8797   59.2618 N.pl3   1  ZINC000001174632   -0.6500
     12 C12        -9.9466   -0.8611   58.7003 C.2     1  ZINC000001174632    0.2300
     13 C13        -9.2939    0.1363   59.3990 C.2     1  ZINC000001174632   -0.1800
     14 C14        -9.2612    0.2839   60.8711 C.ar    1  ZINC000001174632   -0.0600
     15 C15        -8.4103   -0.5156   61.6357 C.ar    1  ZINC000001174632   -0.0600
     16 C16        -8.3829   -0.3750   63.0073 C.ar    1  ZINC000001174632   -0.1500
     17 C17        -9.2004    0.5597   63.6277 C.ar    1  ZINC000001174632    0.1400
     18 O18        -9.1703    0.6952   64.9800 O.3     1  ZINC000001174632   -0.3200
     19 C19        -8.3244   -0.2013   65.7032 C.3     1  ZINC000001174632    0.0300
     20 C20       -10.0481    1.3569   62.8708 C.ar    1  ZINC000001174632   -0.2100
     21 C21       -10.0771    1.2268   61.4981 C.ar    1  ZINC000001174632   -0.0500
     22 C22        -8.6377    1.0245   58.4312 C.2     1  ZINC000001174632    0.4500
     23 O23        -7.9728    2.0089   58.6884 O.2     1  ZINC000001174632   -0.4100
     24 C24        -8.9410    0.4903   57.0748 C.ar    1  ZINC000001174632   -0.1600
     25 C25        -8.5950    0.9071   55.8033 C.ar    1  ZINC000001174632   -0.0500
     26 C26        -9.0357    0.1908   54.6948 C.ar    1  ZINC000001174632   -0.1100
     27 C27        -9.8163   -0.9327   54.8603 C.ar    1  ZINC000001174632   -0.0900
     28 C28       -10.1703   -1.3611   56.1342 C.ar    1  ZINC000001174632   -0.0800
     29 C29        -9.7321   -0.6592   57.2475 C.ar    1  ZINC000001174632   -0.0600
     30 H30       -13.9667    0.4949   57.3184 H       1  ZINC000001174632    0.0700
     31 H31       -12.9907    1.9816   57.2455 H       1  ZINC000001174632    0.1100
     32 H32       -12.1939    0.3906   57.1972 H       1  ZINC000001174632    0.0700
     33 H33       -15.1279   -1.2658   58.4596 H       1  ZINC000001174632    0.1400
     34 H34       -15.2451   -3.3326   57.1382 H       1  ZINC000001174632    0.1300
     35 H35       -13.2365   -4.7137   56.8131 H       1  ZINC000001174632    0.1300
     36 H36       -11.0930   -4.0425   57.8072 H       1  ZINC000001174632    0.1300
     37 H37       -10.3403   -2.3338   60.0518 H       1  ZINC000001174632    0.4300
     38 H38        -7.7744   -1.2435   61.1538 H       1  ZINC000001174632    0.1300
     39 H39        -7.7247   -0.9932   63.5997 H       1  ZINC000001174632    0.1300
     40 H40        -8.6406   -1.2278   65.5185 H       1  ZINC000001174632    0.0600
     41 H41        -7.2934   -0.0737   65.3730 H       1  ZINC000001174632    0.0600
     42 H42        -8.3937    0.0142   66.7694 H       1  ZINC000001174632    0.1000
     43 H43       -10.6829    2.0827   63.3572 H       1  ZINC000001174632    0.1300
     44 H44       -10.7366    1.8476   60.9098 H       1  ZINC000001174632    0.1300
     45 H45        -7.9839    1.7876   55.6702 H       1  ZINC000001174632    0.1400
     46 H46        -8.7653    0.5165   53.7012 H       1  ZINC000001174632    0.1400
     47 H47       -10.1552   -1.4832   53.9952 H       1  ZINC000001174632    0.1400
     48 H48       -10.7823   -2.2424   56.2574 H       1  ZINC000001174632    0.1300
@<TRIPOS>BOND
     1     1     2    1
     2     1    30    1
     3     1    31    1
     4     1    32    1
     5     2     3    1
     6     3     4    2
     7     3     5    1
     8     5    10   ar
     9     5     6   ar
    10     6     7   ar
    11     6    33    1
    12     7     8   ar
    13     7    34    1
    14     8     9   ar
    15     8    35    1
    16     9    10   ar
    17     9    36    1
    18    10    11    1
    19    11    12    1
    20    11    37    1
    21    12    29    1
    22    12    13    2
    23    13    14    1
    24    13    22    1
    25    14    21   ar
    26    14    15   ar
    27    15    16   ar
    28    15    38    1
    29    16    17   ar
    30    16    39    1
    31    17    18    1
    32    17    20   ar
    33    18    19    1
    34    19    40    1
    35    19    41    1
    36    19    42    1
    37    20    21   ar
    38    20    43    1
    39    21    44    1
    40    22    23    2
    41    22    24    1
    42    24    29   ar
    43    24    25   ar
    44    25    26   ar
    45    25    45    1
    46    26    27   ar
    47    26    46    1
    48    27    28   ar
    49    27    47    1
    50    28    29   ar
    51    28    48    1
@<TRIPOS>SUBSTRUCTURE
     1 ZINC000001174632        1 TEMP              0 ****  ****    0 ROOT


##########                                Name:    ZINC001318556452
##########                DOCK_Rotatable_Bonds:                   4
##########                         Heavy_Atoms:                  26
##########                    Molecular_Weight:             368.456
##########                DOCK_Rotatable_Bonds:                   4
##########                       Formal_Charge:          -0.0200005
##########                     HBond_Acceptors:                   6
##########                        HBond_Donors:                   1
##########                         Heavy_Atoms:                  26
##########                          Grid_Score:          -29.896851
##########                     Grid_vdw_energy:          -29.726349
##########                      Grid_es_energy:           -0.170502
##########           Internal_energy_repulsive:           13.708195

@<TRIPOS>MOLECULE
ZINC001318556452
 46 48 1 0 0
SMALL
USER_CHARGES


@<TRIPOS>ATOM
      1 C1         -9.2279    0.2110   54.2869 C.3     1  ZINC001318556452   -0.1300
      2 C2         -8.5050    0.7844   55.4783 C.ar    1  ZINC001318556452   -0.1000
      3 C3         -7.3247    1.4790   55.3023 C.ar    1  ZINC001318556452   -0.0500
      4 C4         -6.7593    1.6632   53.9175 C.3     1  ZINC001318556452   -0.4100
      5 S5         -7.8606    2.7335   52.9521 S.o     1  ZINC001318556452    1.2500
      6 C6         -7.0256    2.8348   51.3450 C.3     1  ZINC001318556452   -0.4900
      7 O7         -7.9058    4.0243   53.5447 O.2     1  ZINC001318556452   -0.8400
      8 C8         -6.6611    2.0063   56.3952 C.ar    1  ZINC001318556452   -0.1200
      9 C9         -7.1761    1.8392   57.6674 C.ar    1  ZINC001318556452   -0.1000
     10 C10        -8.3559    1.1446   57.8507 C.ar    1  ZINC001318556452   -0.1200
     11 C11        -9.0283    0.6195   56.7548 C.ar    1  ZINC001318556452    0.1400
     12 N12       -10.2227   -0.0836   56.9367 N.am    1  ZINC001318556452   -0.6600
     13 C13       -10.2560   -1.1558   57.7527 C.2     1  ZINC001318556452    0.5600
     14 O14        -9.2478   -1.5112   58.3302 O.2     1  ZINC001318556452   -0.5000
     15 C15       -11.5228   -1.9015   57.9456 C.2     1  ZINC001318556452   -0.0300
     16 C16       -11.7993   -3.0125   57.2010 C.2     1  ZINC001318556452   -0.1600
     17 C17       -13.0559   -3.7263   57.4147 C.2     1  ZINC001318556452    0.5300
     18 O18       -13.3032   -4.7173   56.7508 O.2     1  ZINC001318556452   -0.5200
     19 N19       -13.9432   -3.3063   58.3331 N.am    1  ZINC001318556452   -0.5200
     20 C20       -15.1915   -4.0504   58.5179 C.3     1  ZINC001318556452    0.0600
     21 C21       -13.7019   -2.1899   59.1050 C.ar    1  ZINC001318556452    0.1800
     22 C22       -14.6340   -1.7715   60.0509 C.ar    1  ZINC001318556452   -0.1700
     23 C23       -14.3801   -0.6538   60.8157 C.ar    1  ZINC001318556452   -0.0600
     24 C24       -13.2018    0.0616   60.6529 C.ar    1  ZINC001318556452   -0.1500
     25 C25       -12.2733   -0.3309   59.7307 C.ar    1  ZINC001318556452   -0.0600
     26 C26       -12.5071   -1.4649   58.9478 C.ar    1  ZINC001318556452   -0.1100
     27 H27        -9.9284    0.9495   53.8970 H       1  ZINC001318556452    0.0800
     28 H28        -8.5049   -0.0477   53.5132 H       1  ZINC001318556452    0.0800
     29 H29        -9.7731   -0.6833   54.5884 H       1  ZINC001318556452    0.0700
     30 H30        -5.7735    2.1235   53.9858 H       1  ZINC001318556452    0.1000
     31 H31        -6.6742    0.6932   53.4278 H       1  ZINC001318556452    0.1300
     32 H32        -6.9339    1.8355   50.9195 H       1  ZINC001318556452    0.1100
     33 H33        -7.6080    3.4642   50.6719 H       1  ZINC001318556452    0.1100
     34 H34        -6.0332    3.2657   51.4776 H       1  ZINC001318556452    0.0800
     35 H35        -5.7382    2.5495   56.2546 H       1  ZINC001318556452    0.1200
     36 H36        -6.6553    2.2519   58.5187 H       1  ZINC001318556452    0.1300
     37 H37        -8.7574    1.0141   58.8448 H       1  ZINC001318556452    0.1500
     38 H38       -11.0276    0.2001   56.4757 H       1  ZINC001318556452    0.4100
     39 H39       -11.0948   -3.3603   56.4599 H       1  ZINC001318556452    0.1600
     40 H40       -15.2153   -4.8964   57.8312 H       1  ZINC001318556452    0.1000
     41 H41       -15.2497   -4.4134   59.5440 H       1  ZINC001318556452    0.0800
     42 H42       -16.0386   -3.3946   58.3160 H       1  ZINC001318556452    0.0800
     43 H43       -15.5538   -2.3214   60.1847 H       1  ZINC001318556452    0.1400
     44 H44       -15.1048   -0.3311   61.5485 H       1  ZINC001318556452    0.1300
     45 H45       -13.0177    0.9358   61.2598 H       1  ZINC001318556452    0.1300
     46 H46       -11.3589    0.2311   59.6100 H       1  ZINC001318556452    0.1700
@<TRIPOS>BOND
     1     1     2    1
     2     1    27    1
     3     1    28    1
     4     1    29    1
     5     2    11   ar
     6     2     3   ar
     7     3     4    1
     8     3     8   ar
     9     4     5    1
    10     4    30    1
    11     4    31    1
    12     5     6    1
    13     5     7    2
    14     6    32    1
    15     6    33    1
    16     6    34    1
    17     8     9   ar
    18     8    35    1
    19     9    10   ar
    20     9    36    1
    21    10    11   ar
    22    10    37    1
    23    11    12    1
    24    12    13   am
    25    12    38    1
    26    13    14    2
    27    13    15    1
    28    15    26    1
    29    15    16    2
    30    16    17    1
    31    16    39    1
    32    17    18    2
    33    17    19   am
    34    19    20    1
    35    19    21    1
    36    20    40    1
    37    20    41    1
    38    20    42    1
    39    21    26   ar
    40    21    22   ar
    41    22    23   ar
    42    22    43    1
    43    23    24   ar
    44    23    44    1
    45    24    25   ar
    46    24    45    1
    47    25    26   ar
    48    25    46    1
@<TRIPOS>SUBSTRUCTURE
     1 ZINC001318556452        1 TEMP              0 ****  ****    0 ROOT


##########                                Name:    ZINC000492313853
##########                DOCK_Rotatable_Bonds:                   8
##########                         Heavy_Atoms:                  30
##########                    Molecular_Weight:             418.422
##########                DOCK_Rotatable_Bonds:                   8
##########                       Formal_Charge:          -0.0100008
##########                     HBond_Acceptors:                  10
##########                        HBond_Donors:                   2
##########                         Heavy_Atoms:                  30
##########                          Grid_Score:          -29.894499
##########                     Grid_vdw_energy:          -28.598528
##########                      Grid_es_energy:           -1.295971
##########           Internal_energy_repulsive:           15.817587

@<TRIPOS>MOLECULE
ZINC000492313853
 51 53 1 0 0
SMALL
USER_CHARGES


@<TRIPOS>ATOM
      1 C1         -6.6044    2.2810   51.3972 C.3     1  ZINC000492313853    0.0900
      2 N2         -7.3972    3.3421   52.0234 N.pl3   1  ZINC000492313853   -0.6200
      3 C3         -8.2706    4.1849   51.2030 C.3     1  ZINC000492313853    0.1000
      4 C4         -7.3207    3.5490   53.3958 C.ar    1  ZINC000492313853    0.4100
      5 C5         -6.4843    2.7496   54.1678 C.ar    1  ZINC000492313853   -0.2400
      6 C6         -6.4175    2.9668   55.5324 C.ar    1  ZINC000492313853   -0.0100
      7 C7         -7.1924    3.9798   56.0809 C.ar    1  ZINC000492313853   -0.2300
      8 C8         -7.1511    4.2525   57.5624 C.3     1  ZINC000492313853    0.2000
      9 N9         -6.9445    2.9949   58.2849 N.am    1  ZINC000492313853   -0.7300
     10 C10        -7.9985    2.2129   58.5915 C.2     1  ZINC000492313853    0.7100
     11 O11        -9.1207    2.5503   58.2672 O.2     1  ZINC000492313853   -0.5600
     12 N12        -7.8085    1.0567   59.2576 N.am    1  ZINC000492313853   -0.6600
     13 C13        -8.8997    0.2479   59.5764 C.2     1  ZINC000492313853    0.3300
     14 C14        -9.7073   -0.3938   58.6918 C.2     1  ZINC000492313853   -0.2600
     15 C15       -10.6791   -1.0966   59.4282 C.2     1  ZINC000492313853    0.1200
     16 C16       -11.7642   -1.9349   58.8604 C.ar    1  ZINC000492313853   -0.0100
     17 C17       -11.4962   -2.8056   57.8065 C.ar    1  ZINC000492313853   -0.0600
     18 C18       -12.5092   -3.5833   57.2824 C.ar    1  ZINC000492313853   -0.1200
     19 C19       -13.7881   -3.4993   57.8018 C.ar    1  ZINC000492313853   -0.0700
     20 C20       -14.0599   -2.6365   58.8485 C.ar    1  ZINC000492313853   -0.1900
     21 C21       -15.4558   -2.5507   59.4096 C.3     1  ZINC000492313853    0.5100
     22 F22       -16.2103   -1.6519   58.6477 F       1  ZINC000492313853   -0.1800
     23 F23       -16.0540   -3.8146   59.3672 F       1  ZINC000492313853   -0.1800
     24 F24       -15.3993   -2.1056   60.7347 F       1  ZINC000492313853   -0.1800
     25 C25       -13.0536   -1.8581   59.3834 C.ar    1  ZINC000492313853   -0.0400
     26 N26       -10.4587   -0.8814   60.7078 N.2     1  ZINC000492313853   -0.2700
     27 N27        -9.3423   -0.0443   60.8273 N.pl3   1  ZINC000492313853   -0.3900
     28 C28        -8.7595    0.4395   62.0814 C.3     1  ZINC000492313853    0.1000
     29 C29        -8.0008    4.7353   55.2550 C.ar    1  ZINC000492313853    0.1700
     30 N30        -8.0407    4.5091   53.9557 N.ar    1  ZINC000492313853   -0.5400
     31 H31        -5.6347    2.6798   51.0991 H       1  ZINC000492313853    0.0600
     32 H32        -6.4596    1.4678   52.1085 H       1  ZINC000492313853    0.0700
     33 H33        -7.1289    1.9061   50.5183 H       1  ZINC000492313853    0.0700
     34 H34        -8.1987    3.8759   50.1601 H       1  ZINC000492313853    0.0700
     35 H35        -9.3008    4.0797   51.5429 H       1  ZINC000492313853    0.0600
     36 H36        -7.9620    5.2262   51.2955 H       1  ZINC000492313853    0.0600
     37 H37        -5.8953    1.9697   53.7082 H       1  ZINC000492313853    0.1300
     38 H38        -5.7773    2.3616   56.1572 H       1  ZINC000492313853    0.1400
     39 H39        -6.3321    4.9371   57.7831 H       1  ZINC000492313853    0.0800
     40 H40        -8.0939    4.7009   57.8757 H       1  ZINC000492313853    0.0800
     41 H41        -6.0491    2.7251   58.5426 H       1  ZINC000492313853    0.4000
     42 H42        -6.9131    0.7869   59.5152 H       1  ZINC000492313853    0.4100
     43 H43        -9.6194   -0.3684   57.6157 H       1  ZINC000492313853    0.1800
     44 H44       -10.4979   -2.8716   57.3999 H       1  ZINC000492313853    0.1400
     45 H45       -12.3026   -4.2585   56.4652 H       1  ZINC000492313853    0.1400
     46 H46       -14.5778   -4.1094   57.3888 H       1  ZINC000492313853    0.1400
     47 H47       -13.2667   -1.1849   60.2005 H       1  ZINC000492313853    0.1400
     48 H48        -8.0013   -0.2641   62.4249 H       1  ZINC000492313853    0.0800
     49 H49        -8.3019    1.4150   61.9168 H       1  ZINC000492313853    0.0800
     50 H50        -9.5418    0.5276   62.8353 H       1  ZINC000492313853    0.1000
     51 H51        -8.6052    5.5245   55.6774 H       1  ZINC000492313853    0.1600
@<TRIPOS>BOND
     1     1     2    1
     2     1    31    1
     3     1    32    1
     4     1    33    1
     5     2     3    1
     6     2     4    1
     7     3    34    1
     8     3    35    1
     9     3    36    1
    10     4    30   ar
    11     4     5   ar
    12     5     6   ar
    13     5    37    1
    14     6     7   ar
    15     6    38    1
    16     7     8    1
    17     7    29   ar
    18     8     9    1
    19     8    39    1
    20     8    40    1
    21     9    10   am
    22     9    41    1
    23    10    11    2
    24    10    12   am
    25    12    13    1
    26    12    42    1
    27    13    27    1
    28    13    14    2
    29    14    15    1
    30    14    43    1
    31    15    16    1
    32    15    26    2
    33    16    25   ar
    34    16    17   ar
    35    17    18   ar
    36    17    44    1
    37    18    19   ar
    38    18    45    1
    39    19    20   ar
    40    19    46    1
    41    20    21    1
    42    20    25   ar
    43    21    22    1
    44    21    23    1
    45    21    24    1
    46    25    47    1
    47    26    27    1
    48    27    28    1
    49    28    48    1
    50    28    49    1
    51    28    50    1
    52    29    30   ar
    53    29    51    1
@<TRIPOS>SUBSTRUCTURE
     1 ZINC000492313853        1 TEMP              0 ****  ****    0 ROOT


##########                                Name:    ZINC000437192871
##########                DOCK_Rotatable_Bonds:                   9
##########                         Heavy_Atoms:                  28
##########                    Molecular_Weight:             423.298
##########                DOCK_Rotatable_Bonds:                   9
##########                       Formal_Charge:         -8.9407e-08
##########                     HBond_Acceptors:                   9
##########                        HBond_Donors:                   1
##########                         Heavy_Atoms:                  28
##########                          Grid_Score:          -29.893244
##########                     Grid_vdw_energy:          -29.091974
##########                      Grid_es_energy:           -0.801269
##########           Internal_energy_repulsive:           13.474772

@<TRIPOS>MOLECULE
ZINC000437192871
 48 50 1 0 0
SMALL
USER_CHARGES


@<TRIPOS>ATOM
      1 C1         -7.7455    2.1592   56.5323 C.3     1  ZINC000437192871   -0.1700
      2 C2         -7.1860    2.0116   57.9487 C.3     1  ZINC000437192871    0.1300
      3 N3         -7.9005    0.9399   58.6468 N.pl3   1  ZINC000437192871   -0.3600
      4 C4         -9.0138    1.0846   59.3955 C.2     1  ZINC000437192871    0.0700
      5 C5         -9.3578   -0.1375   59.8636 C.2     1  ZINC000437192871   -0.2700
      6 C6        -10.5400   -0.4489   60.7447 C.3     1  ZINC000437192871    0.1900
      7 N7        -11.7171   -0.7037   59.9104 N.am    1  ZINC000437192871   -0.6000
      8 C8        -12.6116    0.3989   59.5493 C.3     1  ZINC000437192871    0.1100
      9 C9        -13.7541    0.4818   60.5636 C.3     1  ZINC000437192871    0.0600
     10 O10       -13.2442    0.9341   61.8196 O.3     1  ZINC000437192871   -0.5600
     11 C11       -11.9769   -1.9525   59.4750 C.2     1  ZINC000437192871    0.6000
     12 O12       -11.2342   -2.8678   59.7746 O.2     1  ZINC000437192871   -0.5000
     13 C13       -13.1602   -2.2086   58.6364 C.2     1  ZINC000437192871   -0.2200
     14 C14       -14.3912   -2.6815   59.0150 C.2     1  ZINC000437192871    0.0100
     15 C15       -14.8227   -3.0557   60.4096 C.3     1  ZINC000437192871   -0.0800
     16 O16       -15.1321   -2.7448   57.9063 O.3     1  ZINC000437192871    0.1100
     17 N17       -14.5443   -2.3847   56.9161 N.2     1  ZINC000437192871   -0.3200
     18 C18       -13.3171   -2.0134   57.1797 C.2     1  ZINC000437192871    0.0800
     19 C19       -12.3010   -1.5137   56.2224 C.ar    1  ZINC000437192871   -0.0200
     20 C20       -11.1648   -2.2729   55.9490 C.ar    1  ZINC000437192871   -0.0700
     21 C21       -10.2224   -1.8038   55.0569 C.ar    1  ZINC000437192871   -0.1000
     22 C22       -10.4034   -0.5810   54.4332 C.ar    1  ZINC000437192871   -0.0100
     23 Cl23       -9.2136    0.0024   53.3116 Cl      1  ZINC000437192871   -0.0500
     24 C24       -11.5299    0.1779   54.7005 C.ar    1  ZINC000437192871   -0.1100
     25 C25       -12.4819   -0.2844   55.5875 C.ar    1  ZINC000437192871    0.0000
     26 Cl26      -13.8946    0.6675   55.9218 Cl      1  ZINC000437192871   -0.0300
     27 C27        -8.4226   -1.0607   59.3846 C.2     1  ZINC000437192871    0.0600
     28 N28        -7.5520   -0.4169   58.6501 N.2     1  ZINC000437192871   -0.2900
     29 H29        -7.2140    2.9565   56.0129 H       1  ZINC000437192871    0.0800
     30 H30        -7.6149    1.2224   55.9905 H       1  ZINC000437192871    0.0600
     31 H31        -8.8065    2.4038   56.5845 H       1  ZINC000437192871    0.0700
     32 H32        -6.1250    1.7670   57.8965 H       1  ZINC000437192871    0.1000
     33 H33        -7.3167    2.9483   58.4904 H       1  ZINC000437192871    0.0900
     34 H34        -9.5365    2.0101   59.5870 H       1  ZINC000437192871    0.1600
     35 H35       -10.3227   -1.3319   61.3457 H       1  ZINC000437192871    0.0900
     36 H36       -10.7369    0.3983   61.4016 H       1  ZINC000437192871    0.0800
     37 H37       -12.0538    1.3354   59.5530 H       1  ZINC000437192871    0.1000
     38 H38       -13.0210    0.2237   58.5544 H       1  ZINC000437192871    0.1000
     39 H39       -14.5086    1.1817   60.2045 H       1  ZINC000437192871    0.0600
     40 H40       -14.2025   -0.5040   60.6872 H       1  ZINC000437192871    0.0500
     41 H41       -12.8530    1.8178   61.7900 H       1  ZINC000437192871    0.3800
     42 H42       -15.3297   -2.2091   60.8725 H       1  ZINC000437192871    0.1000
     43 H43       -15.5033   -3.9059   60.3635 H       1  ZINC000437192871    0.0900
     44 H44       -13.9472   -3.3228   61.0015 H       1  ZINC000437192871    0.0900
     45 H45       -11.0219   -3.2268   56.4348 H       1  ZINC000437192871    0.1600
     46 H46        -9.3414   -2.3916   54.8449 H       1  ZINC000437192871    0.1500
     47 H47       -11.6665    1.1311   54.2114 H       1  ZINC000437192871    0.1500
     48 H48        -8.4221   -2.1223   59.5827 H       1  ZINC000437192871    0.1800
@<TRIPOS>BOND
     1     1     2    1
     2     1    29    1
     3     1    30    1
     4     1    31    1
     5     2     3    1
     6     2    32    1
     7     2    33    1
     8     3    28    1
     9     3     4    1
    10     4     5    2
    11     4    34    1
    12     5     6    1
    13     5    27    1
    14     6     7    1
    15     6    35    1
    16     6    36    1
    17     7     8    1
    18     7    11   am
    19     8     9    1
    20     8    37    1
    21     8    38    1
    22     9    10    1
    23     9    39    1
    24     9    40    1
    25    10    41    1
    26    11    12    2
    27    11    13    1
    28    13    18    1
    29    13    14    2
    30    14    15    1
    31    14    16    1
    32    15    42    1
    33    15    43    1
    34    15    44    1
    35    16    17    1
    36    17    18    2
    37    18    19    1
    38    19    25   ar
    39    19    20   ar
    40    20    21   ar
    41    20    45    1
    42    21    22   ar
    43    21    46    1
    44    22    23    1
    45    22    24   ar
    46    24    25   ar
    47    24    47    1
    48    25    26    1
    49    27    28    2
    50    27    48    1
@<TRIPOS>SUBSTRUCTURE
     1 ZINC000437192871        1 TEMP              0 ****  ****    0 ROOT


##########                                Name:    ZINC000523863446
##########                DOCK_Rotatable_Bonds:                  10
##########                         Heavy_Atoms:                  29
##########                    Molecular_Weight:             396.533
##########                DOCK_Rotatable_Bonds:                  10
##########                       Formal_Charge:          -0.0200008
##########                     HBond_Acceptors:                   6
##########                        HBond_Donors:                   1
##########                         Heavy_Atoms:                  29
##########                          Grid_Score:          -29.879810
##########                     Grid_vdw_energy:          -29.230774
##########                      Grid_es_energy:           -0.649036
##########           Internal_energy_repulsive:           16.396906

@<TRIPOS>MOLECULE
ZINC000523863446
 61 63 1 0 0
SMALL
USER_CHARGES


@<TRIPOS>ATOM
      1 C1        -15.1281   -3.3677   58.9302 C.3     1  ZINC000523863446   -0.1700
      2 C2        -13.7571   -2.7245   59.1488 C.3     1  ZINC000523863446    0.1500
      3 H3        -13.2375   -3.2418   59.9553 H       1  ZINC000523863446    0.1300
      4 C4        -12.9466   -2.8267   57.8824 C.2     1  ZINC000523863446    0.5100
      5 O5        -13.5060   -2.8964   56.8085 O.2     1  ZINC000523863446   -0.5100
      6 N6        -11.6004   -2.8407   57.9432 N.am    1  ZINC000523863446   -0.6000
      7 C7        -10.9248   -2.7584   59.2404 C.3     1  ZINC000523863446    0.0700
      8 C8        -10.8125   -2.9382   56.7118 C.3     1  ZINC000523863446    0.1000
      9 C9        -10.6128   -1.5612   56.1329 C.2     1  ZINC000523863446    0.5000
     10 O10       -10.0455   -0.7073   56.7809 O.2     1  ZINC000523863446   -0.5200
     11 N11       -11.0648   -1.2787   54.8950 N.am    1  ZINC000523863446   -0.7200
     12 C12       -10.8692    0.0594   54.3316 C.3     1  ZINC000523863446    0.1900
     13 H13       -10.9580    0.8036   55.1231 H       1  ZINC000523863446    0.1000
     14 C14       -11.9314    0.3229   53.2623 C.3     1  ZINC000523863446   -0.1200
     15 C15       -12.4044    1.7746   53.3601 C.3     1  ZINC000523863446   -0.0900
     16 C16       -12.1814    2.4749   52.0181 C.3     1  ZINC000523863446   -0.1200
     17 C17       -12.6544    3.9267   52.1157 C.3     1  ZINC000523863446   -0.1200
     18 C18       -14.1438    3.9556   52.4649 C.3     1  ZINC000523863446   -0.1200
     19 C19       -14.3666    3.2552   53.8068 C.3     1  ZINC000523863446   -0.1200
     20 C20       -13.8937    1.8034   53.7092 C.3     1  ZINC000523863446   -0.1100
     21 C21        -9.4988    0.1475   53.7107 C.ar    1  ZINC000523863446   -0.0900
     22 C22        -9.0498   -0.8625   52.8806 C.ar    1  ZINC000523863446   -0.1100
     23 C23        -7.7928   -0.7816   52.3111 C.ar    1  ZINC000523863446   -0.1200
     24 C24        -6.9850    0.3096   52.5714 C.ar    1  ZINC000523863446   -0.1200
     25 C25        -7.4344    1.3201   53.4008 C.ar    1  ZINC000523863446   -0.1200
     26 C26        -8.6930    1.2412   53.9668 C.ar    1  ZINC000523863446   -0.1000
     27 N27       -13.9305   -1.3142   59.5053 N.pl3   1  ZINC000523863446   -0.3600
     28 C28       -13.9894   -0.2786   58.6420 C.2     1  ZINC000523863446    0.0600
     29 C29       -14.1551    0.8527   59.3658 C.2     1  ZINC000523863446   -0.2700
     30 C30       -14.1989    0.4962   60.7176 C.2     1  ZINC000523863446    0.0500
     31 N31       -14.0705   -0.8031   60.8020 N.2     1  ZINC000523863446   -0.2900
     32 H32       -15.6477   -2.8504   58.1237 H       1  ZINC000523863446    0.0700
     33 H33       -14.9990   -4.4170   58.6651 H       1  ZINC000523863446    0.1000
     34 H34       -15.7142   -3.2939   59.8462 H       1  ZINC000523863446    0.0800
     35 H35       -10.7711   -3.7630   59.6345 H       1  ZINC000523863446    0.0700
     36 H36        -9.9606   -2.2650   59.1173 H       1  ZINC000523863446    0.0800
     37 H37       -11.5398   -2.1859   59.9347 H       1  ZINC000523863446    0.0800
     38 H38        -9.8426   -3.3825   56.9353 H       1  ZINC000523863446    0.1100
     39 H39       -11.3407   -3.5623   55.9910 H       1  ZINC000523863446    0.1100
     40 H40       -11.5197   -1.9612   54.3772 H       1  ZINC000523863446    0.4000
     41 H41       -11.5050    0.1453   52.2750 H       1  ZINC000523863446    0.0800
     42 H42       -12.7777   -0.3462   53.4183 H       1  ZINC000523863446    0.0700
     43 H43       -11.8390    2.2895   54.1368 H       1  ZINC000523863446    0.0700
     44 H44       -11.1205    2.4544   51.7693 H       1  ZINC000523863446    0.0600
     45 H45       -12.7468    1.9601   51.2413 H       1  ZINC000523863446    0.0600
     46 H46       -12.0891    4.4416   52.8925 H       1  ZINC000523863446    0.0600
     47 H47       -12.4957    4.4257   51.1596 H       1  ZINC000523863446    0.0600
     48 H48       -14.4807    4.9898   52.5344 H       1  ZINC000523863446    0.0600
     49 H49       -14.7091    3.4407   51.6881 H       1  ZINC000523863446    0.0600
     50 H50       -13.8012    3.7701   54.5836 H       1  ZINC000523863446    0.0600
     51 H51       -15.4277    3.2758   54.0555 H       1  ZINC000523863446    0.0600
     52 H52       -14.4590    1.2887   52.9324 H       1  ZINC000523863446    0.0600
     53 H53       -14.0525    1.3046   54.6652 H       1  ZINC000523863446    0.0600
     54 H54        -9.6809   -1.7149   52.6772 H       1  ZINC000523863446    0.1200
     55 H55        -7.4417   -1.5710   51.6631 H       1  ZINC000523863446    0.1200
     56 H56        -6.0026    0.3724   52.1270 H       1  ZINC000523863446    0.1200
     57 H57        -6.8031    2.1723   53.6044 H       1  ZINC000523863446    0.1200
     58 H58        -9.0442    2.0307   54.6149 H       1  ZINC000523863446    0.1200
     59 H59       -13.9169   -0.3414   57.5663 H       1  ZINC000523863446    0.1700
     60 H60       -14.2382    1.8540   58.9697 H       1  ZINC000523863446    0.1500
     61 H61       -14.3226    1.1756   61.5480 H       1  ZINC000523863446    0.1800
@<TRIPOS>BOND
     1     1     2    1
     2     1    32    1
     3     1    33    1
     4     1    34    1
     5     2     3    1
     6     2     4    1
     7     2    27    1
     8     4     5    2
     9     4     6   am
    10     6     7    1
    11     6     8    1
    12     7    35    1
    13     7    36    1
    14     7    37    1
    15     8     9    1
    16     8    38    1
    17     8    39    1
    18     9    10    2
    19     9    11   am
    20    11    12    1
    21    11    40    1
    22    12    13    1
    23    12    14    1
    24    12    21    1
    25    14    15    1
    26    14    41    1
    27    14    42    1
    28    15    20    1
    29    15    16    1
    30    15    43    1
    31    16    17    1
    32    16    44    1
    33    16    45    1
    34    17    18    1
    35    17    46    1
    36    17    47    1
    37    18    19    1
    38    18    48    1
    39    18    49    1
    40    19    20    1
    41    19    50    1
    42    19    51    1
    43    20    52    1
    44    20    53    1
    45    21    26   ar
    46    21    22   ar
    47    22    23   ar
    48    22    54    1
    49    23    24   ar
    50    23    55    1
    51    24    25   ar
    52    24    56    1
    53    25    26   ar
    54    25    57    1
    55    26    58    1
    56    27    31    1
    57    27    28    1
    58    28    29    2
    59    28    59    1
    60    29    30    1
    61    29    60    1
    62    30    31    2
    63    30    61    1
@<TRIPOS>SUBSTRUCTURE
     1 ZINC000523863446        1 TEMP              0 ****  ****    0 ROOT


##########                                Name:    ZINC000550217006
##########                DOCK_Rotatable_Bonds:                   7
##########                         Heavy_Atoms:                  27
##########                    Molecular_Weight:             367.404
##########                DOCK_Rotatable_Bonds:                   7
##########                       Formal_Charge:          0.00999951
##########                     HBond_Acceptors:                   7
##########                        HBond_Donors:                   3
##########                         Heavy_Atoms:                  27
##########                          Grid_Score:          -29.877178
##########                     Grid_vdw_energy:          -28.866028
##########                      Grid_es_energy:           -1.011150
##########           Internal_energy_repulsive:            9.778458

@<TRIPOS>MOLECULE
ZINC000550217006
 48 50 1 0 0
SMALL
USER_CHARGES


@<TRIPOS>ATOM
      1 C1         -6.9119    3.1223   51.6266 C.3     1  ZINC000550217006   -0.1500
      2 C2         -6.0714    3.6076   52.8094 C.3     1  ZINC000550217006    0.0500
      3 O3         -6.4103    2.8544   53.9754 O.3     1  ZINC000550217006   -0.3100
      4 C4         -5.7499    3.1625   55.1225 C.ar    1  ZINC000550217006    0.1400
      5 C5         -4.7957    4.1693   55.1257 C.ar    1  ZINC000550217006   -0.2100
      6 C6         -4.1261    4.4811   56.2934 C.ar    1  ZINC000550217006   -0.0800
      7 C7         -4.4058    3.7901   57.4576 C.ar    1  ZINC000550217006   -0.1600
      8 C8         -5.3563    2.7857   57.4569 C.ar    1  ZINC000550217006   -0.0700
      9 C9         -6.0329    2.4744   56.2937 C.ar    1  ZINC000550217006   -0.1200
     10 C10        -7.0689    1.3800   56.2937 C.3     1  ZINC000550217006   -0.0800
     11 C11        -8.4385    1.9743   56.6283 C.3     1  ZINC000550217006    0.1300
     12 N12        -9.4544    0.9202   56.5752 N.am    1  ZINC000550217006   -0.7200
     13 C13        -9.6160    0.0867   57.6219 C.2     1  ZINC000550217006    0.5600
     14 O14        -8.9179    0.2086   58.6092 O.2     1  ZINC000550217006   -0.5300
     15 C15       -10.6440   -0.9776   57.5690 C.ar    1  ZINC000550217006   -0.0800
     16 C16       -10.6936   -1.8496   56.4789 C.ar    1  ZINC000550217006   -0.1000
     17 C17       -11.6494   -2.8346   56.4331 C.ar    1  ZINC000550217006   -0.0500
     18 C18       -12.5824   -2.9788   57.4733 C.ar    1  ZINC000550217006   -0.1300
     19 C19       -12.5341   -2.1124   58.5649 C.ar    1  ZINC000550217006    0.1800
     20 C20       -11.5580   -1.1151   58.6062 C.ar    1  ZINC000550217006   -0.0900
     21 N21       -13.4053   -2.1886   59.6381 N.am    1  ZINC000550217006   -0.6600
     22 C22       -14.7111   -2.4263   59.5609 C.2     1  ZINC000550217006    0.5100
     23 O23       -15.3711   -2.4218   60.5783 O.2     1  ZINC000550217006   -0.5100
     24 C24       -15.3940   -2.7002   58.2490 C.3     1  ZINC000550217006    0.0900
     25 N25       -14.8590   -3.9408   57.6879 N.am    1  ZINC000550217006   -0.7100
     26 C26       -13.5765   -4.0544   57.3471 C.2     1  ZINC000550217006    0.5600
     27 O27       -13.2021   -5.1213   56.9006 O.2     1  ZINC000550217006   -0.5200
     28 H28        -7.9696    3.2584   51.8523 H       1  ZINC000550217006    0.0700
     29 H29        -6.6533    3.6968   50.7371 H       1  ZINC000550217006    0.0800
     30 H30        -6.7117    2.0659   51.4477 H       1  ZINC000550217006    0.0700
     31 H31        -5.0137    3.4714   52.5836 H       1  ZINC000550217006    0.0600
     32 H32        -6.2716    4.6640   52.9882 H       1  ZINC000550217006    0.0600
     33 H33        -4.5763    4.7089   54.2163 H       1  ZINC000550217006    0.1300
     34 H34        -3.3831    5.2649   56.2964 H       1  ZINC000550217006    0.1300
     35 H35        -3.8810    4.0350   58.3693 H       1  ZINC000550217006    0.1300
     36 H36        -5.5728    2.2471   58.3677 H       1  ZINC000550217006    0.1300
     37 H37        -7.1056    0.9145   55.3087 H       1  ZINC000550217006    0.0800
     38 H38        -6.8059    0.6305   57.0402 H       1  ZINC000550217006    0.0800
     39 H39        -8.4132    2.4045   57.6294 H       1  ZINC000550217006    0.0700
     40 H40        -8.6837    2.7519   55.9049 H       1  ZINC000550217006    0.0700
     41 H41       -10.0109    0.8221   55.7867 H       1  ZINC000550217006    0.4000
     42 H42        -9.9814   -1.7491   55.6730 H       1  ZINC000550217006    0.1400
     43 H43       -11.6844   -3.5058   55.5878 H       1  ZINC000550217006    0.1500
     44 H44       -11.5183   -0.4396   59.4480 H       1  ZINC000550217006    0.1500
     45 H45       -13.0304   -2.0577   60.5232 H       1  ZINC000550217006    0.4200
     46 H46       -16.4668   -2.8052   58.4106 H       1  ZINC000550217006    0.1300
     47 H47       -15.2054   -1.8767   57.5602 H       1  ZINC000550217006    0.1000
     48 H48       -15.4518   -4.6981   57.5614 H       1  ZINC000550217006    0.4200
@<TRIPOS>BOND
     1     1     2    1
     2     1    28    1
     3     1    29    1
     4     1    30    1
     5     2     3    1
     6     2    31    1
     7     2    32    1
     8     3     4    1
     9     4     9   ar
    10     4     5   ar
    11     5     6   ar
    12     5    33    1
    13     6     7   ar
    14     6    34    1
    15     7     8   ar
    16     7    35    1
    17     8     9   ar
    18     8    36    1
    19     9    10    1
    20    10    11    1
    21    10    37    1
    22    10    38    1
    23    11    12    1
    24    11    39    1
    25    11    40    1
    26    12    13   am
    27    12    41    1
    28    13    14    2
    29    13    15    1
    30    15    20   ar
    31    15    16   ar
    32    16    17   ar
    33    16    42    1
    34    17    18   ar
    35    17    43    1
    36    18    26    1
    37    18    19   ar
    38    19    20   ar
    39    19    21    1
    40    20    44    1
    41    21    22   am
    42    21    45    1
    43    22    23    2
    44    22    24    1
    45    24    25    1
    46    24    46    1
    47    24    47    1
    48    25    26   am
    49    25    48    1
    50    26    27    2
@<TRIPOS>SUBSTRUCTURE
     1 ZINC000550217006        1 TEMP              0 ****  ****    0 ROOT


##########                                Name:    ZINC000655235556
##########                DOCK_Rotatable_Bonds:                   6
##########                         Heavy_Atoms:                  23
##########                    Molecular_Weight:             336.778
##########                DOCK_Rotatable_Bonds:                   6
##########                       Formal_Charge:         -0.00999996
##########                     HBond_Acceptors:                   8
##########                        HBond_Donors:                   2
##########                         Heavy_Atoms:                  23
##########                          Grid_Score:          -29.876137
##########                     Grid_vdw_energy:          -28.967823
##########                      Grid_es_energy:           -0.908314
##########           Internal_energy_repulsive:            6.283451

@<TRIPOS>MOLECULE
ZINC000655235556
 40 42 1 0 0
SMALL
USER_CHARGES


@<TRIPOS>ATOM
      1 C1         -7.6949    1.6075   56.7188 C.3     1  ZINC000655235556    0.0200
      2 O2         -8.7254    1.5351   55.7314 O.3     1  ZINC000655235556   -0.2700
      3 C3         -8.3987    0.9745   54.5402 C.ar    1  ZINC000655235556    0.2000
      4 C4         -7.4364    1.5628   53.7346 C.ar    1  ZINC000655235556   -0.2100
      5 C5         -7.1042    0.9899   52.5211 C.ar    1  ZINC000655235556    0.0300
      6 Cl6        -5.8980    1.7323   51.5173 Cl      1  ZINC000655235556   -0.0500
      7 C7         -7.7288   -0.1748   52.1015 C.ar    1  ZINC000655235556   -0.1600
      8 C8         -8.6874   -0.7721   52.8905 C.ar    1  ZINC000655235556   -0.0300
      9 C9         -9.0288   -0.2060   54.1212 C.ar    1  ZINC000655235556   -0.1700
     10 C10       -10.0538   -0.8408   54.9704 C.2     1  ZINC000655235556    0.5700
     11 O11       -11.1570   -0.3390   55.0699 O.2     1  ZINC000655235556   -0.5100
     12 N12        -9.7678   -1.9772   55.6364 N.am    1  ZINC000655235556   -0.7300
     13 C13       -10.7866   -2.6088   56.4786 C.3     1  ZINC000655235556    0.2100
     14 C14       -10.4956   -2.3119   57.9271 C.2     1  ZINC000655235556    0.2600
     15 N15        -9.6344   -1.4338   58.3734 N.2     1  ZINC000655235556   -0.5100
     16 C16        -9.6363   -1.4357   59.7058 C.2     1  ZINC000655235556    0.2200
     17 C17        -8.7794   -0.5606   60.5839 C.3     1  ZINC000655235556    0.1700
     18 H18        -7.8225   -1.0482   60.7703 H       1  ZINC000655235556    0.1100
     19 C19        -9.5013   -0.2949   61.9224 C.3     1  ZINC000655235556   -0.1400
     20 C20        -9.1557    1.1948   62.1932 C.3     1  ZINC000655235556   -0.1500
     21 C21        -9.1271    1.7572   60.7497 C.3     1  ZINC000655235556    0.0500
     22 O22        -8.5644    0.7044   59.9474 O.3     1  ZINC000655235556   -0.3700
     23 N23       -10.5026   -2.3190   60.1277 N.2     1  ZINC000655235556   -0.2800
     24 N24       -11.0795   -2.8990   58.9861 N.pl3   1  ZINC000655235556   -0.4700
     25 H25        -7.3459    0.6020   56.9542 H       1  ZINC000655235556    0.0600
     26 H26        -6.8643    2.1996   56.3344 H       1  ZINC000655235556    0.0600
     27 H27        -8.0882    2.0761   57.6209 H       1  ZINC000655235556    0.1100
     28 H28        -6.9458    2.4700   54.0551 H       1  ZINC000655235556    0.1500
     29 H29        -7.4630   -0.6153   51.1520 H       1  ZINC000655235556    0.1400
     30 H30        -9.1716   -1.6790   52.5596 H       1  ZINC000655235556    0.1400
     31 H31        -8.8874   -2.3768   55.5580 H       1  ZINC000655235556    0.4000
     32 H32       -11.7690   -2.2154   56.2174 H       1  ZINC000655235556    0.1000
     33 H33       -10.7728   -3.6870   56.3188 H       1  ZINC000655235556    0.1100
     34 H34       -10.5777   -0.4304   61.8162 H       1  ZINC000655235556    0.0800
     35 H35        -9.1047   -0.9347   62.7107 H       1  ZINC000655235556    0.0900
     36 H36        -9.9325    1.6765   62.7872 H       1  ZINC000655235556    0.0900
     37 H37        -8.1812    1.2912   62.6718 H       1  ZINC000655235556    0.0800
     38 H38       -10.1377    1.9903   60.4144 H       1  ZINC000655235556    0.0600
     39 H39        -8.4975    2.6456   60.7023 H       1  ZINC000655235556    0.0900
     40 H40       -11.7595   -3.5904   58.9658 H       1  ZINC000655235556    0.4400
@<TRIPOS>BOND
     1     1     2    1
     2     1    25    1
     3     1    26    1
     4     1    27    1
     5     2     3    1
     6     3     9   ar
     7     3     4   ar
     8     4     5   ar
     9     4    28    1
    10     5     6    1
    11     5     7   ar
    12     7     8   ar
    13     7    29    1
    14     8     9   ar
    15     8    30    1
    16     9    10    1
    17    10    11    2
    18    10    12   am
    19    12    13    1
    20    12    31    1
    21    13    14    1
    22    13    32    1
    23    13    33    1
    24    14    24    1
    25    14    15    2
    26    15    16    1
    27    16    17    1
    28    16    23    2
    29    17    18    1
    30    17    22    1
    31    17    19    1
    32    19    20    1
    33    19    34    1
    34    19    35    1
    35    20    21    1
    36    20    36    1
    37    20    37    1
    38    21    22    1
    39    21    38    1
    40    21    39    1
    41    23    24    1
    42    24    40    1
@<TRIPOS>SUBSTRUCTURE
     1 ZINC000655235556        1 TEMP              0 ****  ****    0 ROOT


##########                                Name:    ZINC000479580180
##########                DOCK_Rotatable_Bonds:                   5
##########                         Heavy_Atoms:                  30
##########                    Molecular_Weight:             404.444
##########                DOCK_Rotatable_Bonds:                   5
##########                       Formal_Charge:           0.0299995
##########                     HBond_Acceptors:                   7
##########                        HBond_Donors:                   1
##########                         Heavy_Atoms:                  30
##########                          Grid_Score:          -29.868591
##########                     Grid_vdw_energy:          -28.881514
##########                      Grid_es_energy:           -0.987078
##########           Internal_energy_repulsive:           16.368998

@<TRIPOS>MOLECULE
ZINC000479580180
 51 55 1 0 0
SMALL
USER_CHARGES


@<TRIPOS>ATOM
      1 O1         -9.5998   -1.9649   57.9768 O.2     1  ZINC000479580180   -0.5200
      2 C2         -9.2299   -1.0204   58.6418 C.2     1  ZINC000479580180    0.5200
      3 C3         -8.9938   -1.1866   60.1209 C.3     1  ZINC000479580180   -0.0700
      4 C4        -10.0221   -0.3938   60.8859 C.2     1  ZINC000479580180   -0.1600
      5 C5         -9.7877    0.5498   61.8076 C.2     1  ZINC000479580180    0.0300
      6 O6        -10.9496    1.0391   62.2758 O.3     1  ZINC000479580180   -0.1900
      7 C7        -11.9991    0.4374   61.6810 C.ar    1  ZINC000479580180    0.0800
      8 C8        -13.3756    0.5751   61.8045 C.ar    1  ZINC000479580180   -0.1400
      9 C9        -14.2152   -0.2066   61.0359 C.ar    1  ZINC000479580180    0.1300
     10 F10       -15.5539   -0.0705   61.1576 F       1  ZINC000479580180   -0.1300
     11 C11       -13.6967   -1.1313   60.1384 C.ar    1  ZINC000479580180   -0.1600
     12 C12       -12.3441   -1.2811   60.0034 C.ar    1  ZINC000479580180   -0.0400
     13 C13       -11.4818   -0.4957   60.7663 C.ar    1  ZINC000479580180   -0.1200
     14 N14        -9.0245    0.1764   58.0569 N.am    1  ZINC000479580180   -0.6200
     15 C15        -8.5650    1.3267   58.8470 C.3     1  ZINC000479580180    0.1100
     16 C16        -7.3090    1.9065   58.1891 C.3     1  ZINC000479580180   -0.1300
     17 C17        -7.6086    2.2300   56.7235 C.3     1  ZINC000479580180   -0.0100
     18 C18        -6.3852    2.8323   56.0821 C.2     1  ZINC000479580180    0.3000
     19 N19        -5.1509    2.6576   56.4739 N.2     1  ZINC000479580180   -0.5300
     20 C20        -4.3204    3.3406   55.6747 C.2     1  ZINC000479580180    0.2700
     21 C21        -2.8425    3.3887   55.8013 C.ar    1  ZINC000479580180   -0.0200
     22 C22        -2.0901    4.1608   54.9187 C.ar    1  ZINC000479580180   -0.0800
     23 C23        -0.7159    4.2023   55.0413 C.ar    1  ZINC000479580180   -0.1300
     24 C24        -0.0857    3.4790   56.0377 C.ar    1  ZINC000479580180   -0.1000
     25 C25        -0.8280    2.7109   56.9166 C.ar    1  ZINC000479580180   -0.1200
     26 C26        -2.2031    2.6667   56.8068 C.ar    1  ZINC000479580180   -0.0800
     27 N27        -5.0318    3.9608   54.7590 N.2     1  ZINC000479580180   -0.3000
     28 N28        -6.3762    3.6375   55.0045 N.pl3   1  ZINC000479580180   -0.4800
     29 C29        -7.9924    0.9461   55.9842 C.3     1  ZINC000479580180   -0.1400
     30 C30        -9.2504    0.3540   56.6160 C.3     1  ZINC000479580180    0.1200
     31 H31        -9.0769   -2.2407   60.3859 H       1  ZINC000479580180    0.1100
     32 H32        -7.9963   -0.8263   60.3724 H       1  ZINC000479580180    0.1100
     33 H33        -8.8077    0.8709   62.1283 H       1  ZINC000479580180    0.2100
     34 H34       -13.7880    1.2912   62.5000 H       1  ZINC000479580180    0.1500
     35 H35       -14.3657   -1.7358   59.5438 H       1  ZINC000479580180    0.1400
     36 H36       -11.9456   -2.0018   59.3048 H       1  ZINC000479580180    0.1300
     37 H37        -9.3465    2.0861   58.8754 H       1  ZINC000479580180    0.0800
     38 H38        -8.3302    1.0031   59.8610 H       1  ZINC000479580180    0.0900
     39 H39        -7.0131    2.8174   58.7096 H       1  ZINC000479580180    0.0900
     40 H40        -6.5005    1.1774   58.2428 H       1  ZINC000479580180    0.0700
     41 H41        -8.4337    2.9403   56.6699 H       1  ZINC000479580180    0.1200
     42 H42        -2.5810    4.7253   54.1399 H       1  ZINC000479580180    0.1400
     43 H43        -0.1316    4.8003   54.3577 H       1  ZINC000479580180    0.1300
     44 H44         0.9898    3.5137   56.1297 H       1  ZINC000479580180    0.1300
     45 H45        -0.3309    2.1477   57.6926 H       1  ZINC000479580180    0.1300
     46 H46        -2.7817    2.0668   57.4937 H       1  ZINC000479580180    0.1300
     47 H47        -7.1473    3.9402   54.4998 H       1  ZINC000479580180    0.4400
     48 H48        -8.1829    1.1736   54.9354 H       1  ZINC000479580180    0.0900
     49 H49        -7.1775    0.2261   56.0586 H       1  ZINC000479580180    0.0700
     50 H50        -9.4701   -0.6104   56.1577 H       1  ZINC000479580180    0.1000
     51 H51       -10.0897    1.0326   56.4645 H       1  ZINC000479580180    0.0800
@<TRIPOS>BOND
     1     1     2    2
     2     2     3    1
     3     2    14   am
     4     3     4    1
     5     3    31    1
     6     3    32    1
     7     4    13    1
     8     4     5    2
     9     5     6    1
    10     5    33    1
    11     6     7    1
    12     7    13   ar
    13     7     8   ar
    14     8     9   ar
    15     8    34    1
    16     9    10    1
    17     9    11   ar
    18    11    12   ar
    19    11    35    1
    20    12    13   ar
    21    12    36    1
    22    14    30    1
    23    14    15    1
    24    15    16    1
    25    15    37    1
    26    15    38    1
    27    16    17    1
    28    16    39    1
    29    16    40    1
    30    17    18    1
    31    17    29    1
    32    17    41    1
    33    18    28    1
    34    18    19    2
    35    19    20    1
    36    20    21    1
    37    20    27    2
    38    21    26   ar
    39    21    22   ar
    40    22    23   ar
    41    22    42    1
    42    23    24   ar
    43    23    43    1
    44    24    25   ar
    45    24    44    1
    46    25    26   ar
    47    25    45    1
    48    26    46    1
    49    27    28    1
    50    28    47    1
    51    29    30    1
    52    29    48    1
    53    29    49    1
    54    30    50    1
    55    30    51    1
@<TRIPOS>SUBSTRUCTURE
     1 ZINC000479580180        1 TEMP              0 ****  ****    0 ROOT


##########                                Name:    ZINC000286156371
##########                DOCK_Rotatable_Bonds:                   7
##########                         Heavy_Atoms:                  25
##########                    Molecular_Weight:             350.418
##########                DOCK_Rotatable_Bonds:                   7
##########                       Formal_Charge:          0.00999908
##########                     HBond_Acceptors:                   8
##########                        HBond_Donors:                   2
##########                         Heavy_Atoms:                  25
##########                          Grid_Score:          -29.864088
##########                     Grid_vdw_energy:          -25.363049
##########                      Grid_es_energy:           -4.501040
##########           Internal_energy_repulsive:           21.078220

@<TRIPOS>MOLECULE
ZINC000286156371
 51 53 1 0 0
SMALL
USER_CHARGES


@<TRIPOS>ATOM
      1 C1        -13.0107   -2.2450   58.7028 C.3     1  <0>        -0.1800
      2 C2        -13.4355   -1.2233   59.7596 C.3     1  <0>         0.1400
      3 C3        -13.8410    0.0823   59.0727 C.3     1  <0>        -0.1800
      4 C4        -14.6233   -1.7731   60.5518 C.3     1  <0>        -0.1400
      5 O5        -12.3266   -0.9712   60.6623 O.3     1  <0>        -0.3600
      6 C6        -12.3994    0.1352   61.4259 C.2     1  <0>         0.6800
      7 O7        -13.4652    0.4786   61.8979 O.2     1  <0>        -0.5600
      8 N8        -11.2902    0.8620   61.6667 N.am    1  <0>        -0.5800
      9 C9        -11.2273    2.0893   62.4813 C.3     1  <0>         0.0700
     10 C10        -9.7560    2.1732   62.9589 C.3     1  <0>         0.0900
     11 H11        -9.4758    3.2026   63.1818 H       1  <0>         0.0900
     12 O12        -9.5360    1.3287   64.0905 O.3     1  <0>        -0.5500
     13 C13        -8.9940    1.6463   61.7143 C.3     1  <0>        -0.1200
     14 C14        -9.9416    0.5587   61.1661 C.3     1  <0>         0.1500
     15 H15        -9.6223   -0.4224   61.5174 H       1  <0>         0.1100
     16 C16        -9.9395    0.5892   59.6594 C.2     1  <0>         0.5200
     17 O17       -10.7468    1.2723   59.0655 O.2     1  <0>        -0.4900
     18 N18        -9.0405   -0.1427   58.9718 N.am    1  <0>        -0.6300
     19 C19        -9.0374   -0.1131   57.5706 C.2     1  <0>         0.3000
     20 N20        -9.6645   -0.9546   56.7799 N.2     1  <0>        -0.3200
     21 N21        -9.4096   -0.5806   55.4586 N.pl3   1  <0>        -0.3600
     22 C22        -9.9023   -1.2267   54.2382 C.3     1  <0>         0.1400
     23 C23        -9.7429   -0.2535   53.0655 C.3     1  <0>        -0.1400
     24 C24        -8.3118    0.2914   53.0424 C.3     1  <0>        -0.1300
     25 C25        -8.1062    1.2200   54.2463 C.3     1  <0>        -0.0600
     26 C26        -8.6094    0.5107   55.4794 C.2     1  <0>         0.0900
     27 C27        -8.3678    0.8257   56.7665 C.2     1  <0>        -0.2600
     28 H28       -12.1645   -1.8534   58.1383 H       1  <0>         0.0900
     29 H29       -12.7219   -3.1751   59.1921 H       1  <0>         0.0600
     30 H30       -13.8432   -2.4343   58.0251 H       1  <0>         0.0700
     31 H31       -14.6734   -0.1070   58.3950 H       1  <0>         0.0700
     32 H32       -14.1437    0.8101   59.8255 H       1  <0>         0.0600
     33 H33       -12.9947    0.4740   58.5082 H       1  <0>         0.0900
     34 H34       -14.3345   -2.7032   61.0412 H       1  <0>         0.0700
     35 H35       -14.9260   -1.0452   61.3047 H       1  <0>         0.0700
     36 H36       -15.4558   -1.9623   59.8741 H       1  <0>         0.0800
     37 H37       -11.4797    2.9598   61.8757 H       1  <0>         0.0800
     38 H38       -11.8997    2.0124   63.3357 H       1  <0>         0.0900
     39 H39        -8.6035    1.2107   64.3178 H       1  <0>         0.3900
     40 H40        -8.8513    2.4427   60.9838 H       1  <0>         0.1000
     41 H41        -8.0374    1.2110   62.0036 H       1  <0>         0.1100
     42 H42        -8.3956   -0.6900   59.4468 H       1  <0>         0.4200
     43 H43        -9.3244   -2.1303   54.0445 H       1  <0>         0.0800
     44 H44       -10.9548   -1.4828   54.3600 H       1  <0>         0.0900
     45 H45        -9.9480   -0.7750   52.1305 H       1  <0>         0.0900
     46 H46       -10.4442    0.5729   53.1814 H       1  <0>         0.0800
     47 H47        -7.6057   -0.5372   53.0968 H       1  <0>         0.0700
     48 H48        -8.1494    0.8494   52.1202 H       1  <0>         0.0800
     49 H49        -7.0460    1.4466   54.3593 H       1  <0>         0.0900
     50 H50        -8.6665    2.1433   54.0986 H       1  <0>         0.0900
     51 H51        -7.7655    1.6505   57.1178 H       1  <0>         0.1700
@<TRIPOS>BOND
     1     1     2    1
     2     1    28    1
     3     1    29    1
     4     1    30    1
     5     2     3    1
     6     2     4    1
     7     2     5    1
     8     3    31    1
     9     3    32    1
    10     3    33    1
    11     4    34    1
    12     4    35    1
    13     4    36    1
    14     5     6    1
    15     6     7    2
    16     6     8   am
    17     8    14    1
    18     8     9    1
    19     9    10    1
    20     9    37    1
    21     9    38    1
    22    10    11    1
    23    10    12    1
    24    10    13    1
    25    12    39    1
    26    13    14    1
    27    13    40    1
    28    13    41    1
    29    14    15    1
    30    14    16    1
    31    16    17    2
    32    16    18   am
    33    18    19    1
    34    18    42    1
    35    19    27    1
    36    19    20    2
    37    20    21    1
    38    21    26    1
    39    21    22    1
    40    22    23    1
    41    22    43    1
    42    22    44    1
    43    23    24    1
    44    23    45    1
    45    23    46    1
    46    24    25    1
    47    24    47    1
    48    24    48    1
    49    25    26    1
    50    25    49    1
    51    25    50    1
    52    26    27    2
    53    27    51    1
@<TRIPOS>SUBSTRUCTURE
     1 <0>         1 TEMP              0 ****  ****    0 ROOT


##########                                Name:    ZINC000428748914
##########                DOCK_Rotatable_Bonds:                  11
##########                         Heavy_Atoms:                  30
##########                    Molecular_Weight:             413.492
##########                DOCK_Rotatable_Bonds:                  11
##########                       Formal_Charge:           0.0199993
##########                     HBond_Acceptors:                   7
##########                        HBond_Donors:                   3
##########                         Heavy_Atoms:                  30
##########                          Grid_Score:          -29.848692
##########                     Grid_vdw_energy:          -29.314501
##########                      Grid_es_energy:           -0.534190
##########           Internal_energy_repulsive:           20.452108

@<TRIPOS>MOLECULE
ZINC000428748914
 58 61 1 0 0
SMALL
USER_CHARGES


@<TRIPOS>ATOM
      1 O1        -11.8037   -0.8855   57.0110 O.2     1  ZINC000428748914   -0.5900
      2 C2        -10.8762   -1.4384   56.4521 C.2     1  ZINC000428748914    0.7000
      3 N3        -10.2985   -2.5189   57.0136 N.am    1  ZINC000428748914   -0.7400
      4 C4        -10.7843   -3.0235   58.3004 C.3     1  ZINC000428748914    0.1900
      5 C5        -10.4159   -2.0524   59.3923 C.ar    1  ZINC000428748914   -0.2000
      6 C6         -9.1075   -1.9733   59.8485 C.ar    1  ZINC000428748914   -0.0200
      7 C7         -8.8122   -1.0678   60.8529 C.ar    1  ZINC000428748914   -0.1900
      8 C8         -9.8289   -0.2736   61.3671 C.ar    1  ZINC000428748914    0.3300
      9 O9         -9.5523    0.6182   62.3514 O.3     1  ZINC000428748914   -0.3000
     10 C10       -10.6345    1.4269   62.8170 C.3     1  ZINC000428748914    0.0800
     11 C11       -10.1279    2.4744   63.8393 C.3     1  ZINC000428748914   -0.1400
     12 C12       -11.2086    3.5810   63.7590 C.3     1  ZINC000428748914   -0.1200
     13 C13       -11.5767    3.6423   62.2621 C.3     1  ZINC000428748914   -0.1200
     14 C14       -11.2117    2.2728   61.6632 C.3     1  ZINC000428748914   -0.1200
     15 N15       -11.0643   -0.3781   60.9060 N.ar    1  ZINC000428748914   -0.5400
     16 C16       -11.3753   -1.2276   59.9456 C.ar    1  ZINC000428748914    0.1600
     17 N17       -10.4293   -0.9742   55.2684 N.am    1  ZINC000428748914   -0.7400
     18 C18       -11.0573    0.2003   54.6579 C.3     1  ZINC000428748914    0.1800
     19 C19        -9.9739    1.1880   54.2199 C.3     1  ZINC000428748914   -0.1300
     20 C20        -8.8699    1.4540   55.2452 C.3     1  ZINC000428748914    0.1100
     21 O21        -9.4560    1.6758   56.5296 O.3     1  ZINC000428748914   -0.5700
     22 C22       -10.3998    2.3511   53.3218 C.3     1  ZINC000428748914   -0.1400
     23 C23        -9.5815    1.1961   52.7412 C.3     1  ZINC000428748914   -0.1000
     24 H24       -10.0952    0.4978   52.0803 H       1  ZINC000428748914    0.1200
     25 C25        -8.1374    1.4663   52.4054 C.ar    1  ZINC000428748914   -0.0700
     26 C26        -7.1879    0.4797   52.5953 C.ar    1  ZINC000428748914   -0.0900
     27 C27        -5.8633    0.7263   52.2878 C.ar    1  ZINC000428748914   -0.1500
     28 C28        -5.4876    1.9620   51.7888 C.ar    1  ZINC000428748914    0.1000
     29 F29        -4.1930    2.2041   51.4874 F       1  ZINC000428748914   -0.1400
     30 C30        -6.4396    2.9493   51.5986 C.ar    1  ZINC000428748914   -0.1500
     31 C31        -7.7643    2.6987   51.9024 C.ar    1  ZINC000428748914   -0.0800
     32 H32        -9.5611   -2.9624   56.5659 H       1  ZINC000428748914    0.4000
     33 H33       -11.8681   -3.1330   58.2620 H       1  ZINC000428748914    0.0800
     34 H34       -10.3284   -3.9919   58.5064 H       1  ZINC000428748914    0.0800
     35 H35        -8.3374   -2.6042   59.4298 H       1  ZINC000428748914    0.1400
     36 H36        -7.8047   -0.9802   61.2319 H       1  ZINC000428748914    0.1400
     37 H37       -11.4121    0.8041   63.2594 H       1  ZINC000428748914    0.1000
     38 H38       -10.0859    2.0474   64.8413 H       1  ZINC000428748914    0.0700
     39 H39        -9.1538    2.8636   63.5431 H       1  ZINC000428748914    0.0800
     40 H40       -12.0793    3.3079   64.3551 H       1  ZINC000428748914    0.0700
     41 H41       -10.8020    4.5361   64.0913 H       1  ZINC000428748914    0.0700
     42 H42       -12.6447    3.8273   62.1475 H       1  ZINC000428748914    0.0700
     43 H43       -11.0061    4.4295   61.7693 H       1  ZINC000428748914    0.0700
     44 H44       -10.4639    2.3952   60.8797 H       1  ZINC000428748914    0.0800
     45 H45       -12.1027    1.7931   61.2580 H       1  ZINC000428748914    0.0700
     46 H46       -12.3948   -1.2851   59.5940 H       1  ZINC000428748914    0.1600
     47 H47        -9.6920   -1.4177   54.8206 H       1  ZINC000428748914    0.3900
     48 H48       -11.6395   -0.1089   53.7900 H       1  ZINC000428748914    0.0700
     49 H49       -11.7140    0.6797   55.3839 H       1  ZINC000428748914    0.0900
     50 H50        -8.2038    0.5926   55.2936 H       1  ZINC000428748914    0.0500
     51 H51        -8.3025    2.3357   54.9476 H       1  ZINC000428748914    0.0600
     52 H52        -9.6446    0.8648   57.0211 H       1  ZINC000428748914    0.3800
     53 H53       -11.4518    2.4127   53.0431 H       1  ZINC000428748914    0.1100
     54 H54        -9.8936    3.3063   53.4614 H       1  ZINC000428748914    0.1100
     55 H55        -7.4813   -0.4841   52.9846 H       1  ZINC000428748914    0.1400
     56 H56        -5.1216   -0.0443   52.4369 H       1  ZINC000428748914    0.1400
     57 H57        -6.1475    3.9136   51.2098 H       1  ZINC000428748914    0.1400
     58 H58        -8.5070    3.4685   51.7537 H       1  ZINC000428748914    0.1300
@<TRIPOS>BOND
     1     1     2    2
     2     2     3   am
     3     2    17   am
     4     3     4    1
     5     3    32    1
     6     4     5    1
     7     4    33    1
     8     4    34    1
     9     5    16   ar
    10     5     6   ar
    11     6     7   ar
    12     6    35    1
    13     7     8   ar
    14     7    36    1
    15     8     9    1
    16     8    15   ar
    17     9    10    1
    18    10    14    1
    19    10    11    1
    20    10    37    1
    21    11    12    1
    22    11    38    1
    23    11    39    1
    24    12    13    1
    25    12    40    1
    26    12    41    1
    27    13    14    1
    28    13    42    1
    29    13    43    1
    30    14    44    1
    31    14    45    1
    32    15    16   ar
    33    16    46    1
    34    17    18    1
    35    17    47    1
    36    18    19    1
    37    18    48    1
    38    18    49    1
    39    19    23    1
    40    19    20    1
    41    19    22    1
    42    20    21    1
    43    20    50    1
    44    20    51    1
    45    21    52    1
    46    22    23    1
    47    22    53    1
    48    22    54    1
    49    23    24    1
    50    23    25    1
    51    25    31   ar
    52    25    26   ar
    53    26    27   ar
    54    26    55    1
    55    27    28   ar
    56    27    56    1
    57    28    29    1
    58    28    30   ar
    59    30    31   ar
    60    30    57    1
    61    31    58    1
@<TRIPOS>SUBSTRUCTURE
     1 ZINC000428748914        1 TEMP              0 ****  ****    0 ROOT


##########                                Name:    ZINC001400108193
##########                DOCK_Rotatable_Bonds:                   9
##########                         Heavy_Atoms:                  25
##########                    Molecular_Weight:              344.41
##########                DOCK_Rotatable_Bonds:                   9
##########                       Formal_Charge:           0.0200001
##########                     HBond_Acceptors:                   6
##########                        HBond_Donors:                   2
##########                         Heavy_Atoms:                  25
##########                          Grid_Score:          -29.845659
##########                     Grid_vdw_energy:          -29.359833
##########                      Grid_es_energy:           -0.485826
##########           Internal_energy_repulsive:            7.631557

@<TRIPOS>MOLECULE
ZINC001400108193
 49 50 1 0 0
SMALL
USER_CHARGES


@<TRIPOS>ATOM
      1 C1         -8.4751   -0.3252   66.7091 C.3     1  ZINC001400108193   -0.0800
      2 C2         -8.4958   -0.1864   65.2086 C.2     1  ZINC001400108193   -0.0100
      3 C3         -9.3081    0.6243   64.5135 C.2     1  ZINC001400108193   -0.1600
      4 C4         -8.9676    0.4205   63.0978 C.2     1  ZINC001400108193   -0.2300
      5 C5         -9.5782    1.0812   61.9306 C.2     1  ZINC001400108193    0.5900
      6 O6        -10.6064    1.7175   62.0609 O.2     1  ZINC001400108193   -0.5300
      7 N7         -8.9970    0.9806   60.7187 N.am    1  ZINC001400108193   -0.7300
      8 C8         -9.6049    1.6360   59.5580 C.3     1  ZINC001400108193    0.1100
      9 C9        -10.4697    0.6282   58.7982 C.3     1  ZINC001400108193    0.1300
     10 H10       -10.2607   -0.3775   59.1627 H       1  ZINC001400108193    0.1000
     11 C11       -11.9479    0.9544   59.0208 C.3     1  ZINC001400108193   -0.1600
     12 N12       -10.1633    0.7026   57.3675 N.am    1  ZINC001400108193   -0.7300
     13 C13        -9.8763   -0.4208   56.6805 C.2     1  ZINC001400108193    0.5200
     14 O14        -9.8731   -1.4935   57.2464 O.2     1  ZINC001400108193   -0.5100
     15 C15        -9.5593   -0.3441   55.2092 C.3     1  ZINC001400108193    0.0700
     16 H16        -8.6105   -0.8445   55.0153 H       1  ZINC001400108193    0.1000
     17 C17       -10.6701   -1.0304   54.4118 C.3     1  ZINC001400108193   -0.1800
     18 O18        -9.4651    1.0256   54.8130 O.3     1  ZINC001400108193   -0.2800
     19 C19        -8.4337    1.3615   53.9942 C.ar    1  ZINC001400108193    0.1200
     20 C20        -8.5495    1.1853   52.6229 C.ar    1  ZINC001400108193   -0.2100
     21 C21        -7.4998    1.5280   51.7928 C.ar    1  ZINC001400108193   -0.0800
     22 C22        -6.3328    2.0413   52.3278 C.ar    1  ZINC001400108193   -0.1200
     23 C23        -5.1870    2.4084   51.4203 C.3     1  ZINC001400108193   -0.1100
     24 C24        -6.2170    2.2227   53.6936 C.ar    1  ZINC001400108193   -0.0800
     25 C25        -7.2637    1.8817   54.5281 C.ar    1  ZINC001400108193   -0.1400
     26 C26        -7.9725   -0.5127   63.0902 C.2     1  ZINC001400108193    0.0200
     27 O27        -7.7048   -0.8541   64.3544 O.3     1  ZINC001400108193   -0.1700
     28 H28        -9.1688   -1.1099   67.0109 H       1  ZINC001400108193    0.0900
     29 H29        -7.4682   -0.5848   67.0361 H       1  ZINC001400108193    0.0800
     30 H30        -8.7732    0.6187   67.1655 H       1  ZINC001400108193    0.0900
     31 H31       -10.0584    1.2909   64.9124 H       1  ZINC001400108193    0.1600
     32 H32        -8.1762    0.4741   60.6150 H       1  ZINC001400108193    0.4000
     33 H33        -8.8207    2.0107   58.9002 H       1  ZINC001400108193    0.0800
     34 H34       -10.2254    2.4669   59.8937 H       1  ZINC001400108193    0.0900
     35 H35       -12.5639    0.2365   58.4795 H       1  ZINC001400108193    0.0700
     36 H36       -12.1758    0.8991   60.0853 H       1  ZINC001400108193    0.0700
     37 H37       -12.1569    1.9602   58.6563 H       1  ZINC001400108193    0.0600
     38 H38       -10.1670    1.5604   56.9147 H       1  ZINC001400108193    0.4000
     39 H39       -10.7421   -2.0752   54.7139 H       1  ZINC001400108193    0.0800
     40 H40       -11.6189   -0.5300   54.6056 H       1  ZINC001400108193    0.0800
     41 H41       -10.4409   -0.9749   53.3475 H       1  ZINC001400108193    0.0800
     42 H42        -9.4592    0.7802   52.2050 H       1  ZINC001400108193    0.1300
     43 H43        -7.5892    1.3907   50.7253 H       1  ZINC001400108193    0.1300
     44 H44        -5.2877    3.4486   51.1108 H       1  ZINC001400108193    0.0700
     45 H45        -4.2452    2.2774   51.9531 H       1  ZINC001400108193    0.0700
     46 H46        -5.1995    1.7647   50.5407 H       1  ZINC001400108193    0.0700
     47 H47        -5.3059    2.6276   54.1088 H       1  ZINC001400108193    0.1300
     48 H48        -7.1713    2.0201   55.5952 H       1  ZINC001400108193    0.1300
     49 H49        -7.4823   -0.9065   62.2120 H       1  ZINC001400108193    0.2100
@<TRIPOS>BOND
     1     1     2    1
     2     1    28    1
     3     1    29    1
     4     1    30    1
     5     2    27    1
     6     2     3    2
     7     3     4    1
     8     3    31    1
     9     4     5    1
    10     4    26    2
    11     5     6    2
    12     5     7   am
    13     7     8    1
    14     7    32    1
    15     8     9    1
    16     8    33    1
    17     8    34    1
    18     9    10    1
    19     9    11    1
    20     9    12    1
    21    11    35    1
    22    11    36    1
    23    11    37    1
    24    12    13   am
    25    12    38    1
    26    13    14    2
    27    13    15    1
    28    15    16    1
    29    15    17    1
    30    15    18    1
    31    17    39    1
    32    17    40    1
    33    17    41    1
    34    18    19    1
    35    19    25   ar
    36    19    20   ar
    37    20    21   ar
    38    20    42    1
    39    21    22   ar
    40    21    43    1
    41    22    23    1
    42    22    24   ar
    43    23    44    1
    44    23    45    1
    45    23    46    1
    46    24    25   ar
    47    24    47    1
    48    25    48    1
    49    26    27    1
    50    26    49    1
@<TRIPOS>SUBSTRUCTURE
     1 ZINC001400108193        1 TEMP              0 ****  ****    0 ROOT


##########                                Name:    ZINC001173835973
##########                DOCK_Rotatable_Bonds:                   4
##########                         Heavy_Atoms:                  26
##########                    Molecular_Weight:             343.388
##########                DOCK_Rotatable_Bonds:                   4
##########                       Formal_Charge:           -0.010001
##########                     HBond_Acceptors:                   6
##########                        HBond_Donors:                   4
##########                         Heavy_Atoms:                  26
##########                          Grid_Score:          -29.817539
##########                     Grid_vdw_energy:          -25.379110
##########                      Grid_es_energy:           -4.438428
##########           Internal_energy_repulsive:            7.561307

@<TRIPOS>MOLECULE
ZINC001173835973
 43 46 1 0 0
SMALL
USER_CHARGES


@<TRIPOS>ATOM
      1 C1        -10.0631    2.2543   66.2475 C.3     1  ZINC001173835973   -0.1700
      2 C2        -10.2636    2.1186   64.7600 C.2     1  ZINC001173835973    0.5100
      3 O3        -11.3533    1.8190   64.3198 O.2     1  ZINC001173835973   -0.5200
      4 N4         -9.2320    2.3302   63.9189 N.am    1  ZINC001173835973   -0.6800
      5 C5         -9.4180    2.2042   62.5379 C.ar    1  ZINC001173835973    0.1800
      6 C6        -10.3273    3.0238   61.8812 C.ar    1  ZINC001173835973   -0.1900
      7 C7        -10.5119    2.9003   60.5171 C.ar    1  ZINC001173835973   -0.0600
      8 C8         -9.7931    1.9625   59.8019 C.ar    1  ZINC001173835973   -0.1900
      9 C9         -8.8815    1.1392   60.4529 C.ar    1  ZINC001173835973    0.2200
     10 N10        -8.1551    0.1913   59.7295 N.pl3   1  ZINC001173835973   -0.6900
     11 C11        -8.5049   -0.0970   58.4052 C.ar    1  ZINC001173835973    0.0400
     12 C12        -7.9762    0.6434   57.3891 C.ar    1  ZINC001173835973    0.2400
     13 N13        -7.0882    1.6856   57.6786 N.pl3   1  ZINC001173835973   -0.8600
     14 C14        -8.3290    0.3570   56.0029 C.ar    1  ZINC001173835973   -0.1100
     15 C15        -7.7875    1.1156   54.9524 C.ar    1  ZINC001173835973   -0.0600
     16 C16        -8.1533    0.8023   53.6712 C.ar    1  ZINC001173835973   -0.1700
     17 C17        -9.0393   -0.2436   53.4417 C.ar    1  ZINC001173835973    0.1200
     18 N18        -9.5414   -0.9484   54.4300 N.ar    1  ZINC001173835973   -0.4400
     19 C19        -9.2238   -0.6921   55.6970 C.ar    1  ZINC001173835973    0.1900
     20 C20        -9.7927   -1.4889   56.7904 C.ar    1  ZINC001173835973    0.1300
     21 N21       -10.6389   -2.4851   56.5389 N.ar    1  ZINC001173835973   -0.4400
     22 C22       -11.1556   -3.2063   57.5077 C.ar    1  ZINC001173835973    0.1000
     23 C23       -10.8439   -2.9641   58.8401 C.ar    1  ZINC001173835973   -0.1500
     24 C24        -9.9795   -1.9533   59.1640 C.ar    1  ZINC001173835973   -0.0700
     25 C25        -9.4276   -1.1910   58.1218 C.ar    1  ZINC001173835973   -0.0400
     26 C26        -8.6902    1.2645   61.8220 C.ar    1  ZINC001173835973   -0.1900
     27 H27       -11.0021    2.0473   66.7609 H       1  ZINC001173835973    0.1000
     28 H28        -9.3042    1.5452   66.5780 H       1  ZINC001173835973    0.0900
     29 H29        -9.7382    3.2686   66.4792 H       1  ZINC001173835973    0.0900
     30 H30        -8.3605    2.5699   64.2709 H       1  ZINC001173835973    0.4100
     31 H31       -10.8911    3.7581   62.4374 H       1  ZINC001173835973    0.1200
     32 H32       -11.2201    3.5383   60.0093 H       1  ZINC001173835973    0.1200
     33 H33        -9.9397    1.8685   58.7361 H       1  ZINC001173835973    0.1200
     34 H34        -7.4079   -0.2675   60.1446 H       1  ZINC001173835973    0.4000
     35 H35        -6.7878    1.8278   58.5899 H       1  ZINC001173835973    0.4100
     36 H36        -6.7730    2.2656   56.9679 H       1  ZINC001173835973    0.4000
     37 H37        -7.1005    1.9252   55.1503 H       1  ZINC001173835973    0.1400
     38 H38        -7.7550    1.3667   52.8409 H       1  ZINC001173835973    0.1400
     39 H39        -9.3218   -0.4824   52.4271 H       1  ZINC001173835973    0.1700
     40 H40       -11.8389   -4.0061   57.2629 H       1  ZINC001173835973    0.1600
     41 H41       -11.2826   -3.5714   59.6180 H       1  ZINC001173835973    0.1400
     42 H42        -9.7258   -1.7500   60.1938 H       1  ZINC001173835973    0.1400
     43 H43        -7.9824    0.6265   62.3302 H       1  ZINC001173835973    0.1400
@<TRIPOS>BOND
     1     1     2    1
     2     1    27    1
     3     1    28    1
     4     1    29    1
     5     2     3    2
     6     2     4   am
     7     4     5    1
     8     4    30    1
     9     5    26   ar
    10     5     6   ar
    11     6     7   ar
    12     6    31    1
    13     7     8   ar
    14     7    32    1
    15     8     9   ar
    16     8    33    1
    17     9    10    1
    18     9    26   ar
    19    10    11    1
    20    10    34    1
    21    11    25   ar
    22    11    12   ar
    23    12    13    1
    24    12    14   ar
    25    13    35    1
    26    13    36    1
    27    14    19   ar
    28    14    15   ar
    29    15    16   ar
    30    15    37    1
    31    16    17   ar
    32    16    38    1
    33    17    18   ar
    34    17    39    1
    35    18    19   ar
    36    19    20   ar
    37    20    25   ar
    38    20    21   ar
    39    21    22   ar
    40    22    23   ar
    41    22    40    1
    42    23    24   ar
    43    23    41    1
    44    24    25   ar
    45    24    42    1
    46    26    43    1
@<TRIPOS>SUBSTRUCTURE
     1 ZINC001173835973        1 TEMP              0 ****  ****    0 ROOT


##########                                Name:    ZINC000753658424
##########                DOCK_Rotatable_Bonds:                   8
##########                         Heavy_Atoms:                  24
##########                    Molecular_Weight:             332.399
##########                DOCK_Rotatable_Bonds:                   8
##########                       Formal_Charge:        -9.16421e-07
##########                     HBond_Acceptors:                   6
##########                        HBond_Donors:                   3
##########                         Heavy_Atoms:                  24
##########                          Grid_Score:          -29.812351
##########                     Grid_vdw_energy:          -29.791122
##########                      Grid_es_energy:           -0.021229
##########           Internal_energy_repulsive:           17.975449

@<TRIPOS>MOLECULE
ZINC000753658424
 48 49 1 0 0
SMALL
USER_CHARGES


@<TRIPOS>ATOM
      1 C1         -9.4207   -1.8386   52.8010 C.3     1  ZINC000753658424   -0.2000
      2 C2        -10.0358   -0.5320   53.2318 C.2     1  ZINC000753658424    0.4400
      3 O3        -11.0458   -0.1301   52.6928 O.2     1  ZINC000753658424   -0.4500
      4 C4         -9.4139    0.2535   54.3022 C.2     1  ZINC000753658424   -0.2500
      5 C5         -8.2974    1.0670   54.1864 C.2     1  ZINC000753658424    0.1000
      6 C6         -7.5033    1.3009   52.9271 C.3     1  ZINC000753658424   -0.1000
      7 N7         -8.0450    1.6107   55.3859 N.pl3   1  ZINC000753658424   -0.5300
      8 C8         -8.9818    1.1661   56.2940 C.2     1  ZINC000753658424   -0.0600
      9 C9         -9.0446    1.5353   57.7140 C.2     1  ZINC000753658424    0.5900
     10 O10        -9.2365    2.6935   58.0335 O.2     1  ZINC000753658424   -0.5200
     11 N11        -8.8896    0.5911   58.6632 N.am    1  ZINC000753658424   -0.7300
     12 C12        -8.9506    0.9597   60.0798 C.3     1  ZINC000753658424    0.0900
     13 C13        -8.9042   -0.3057   60.9385 C.3     1  ZINC000753658424    0.1900
     14 H14        -8.0055   -0.8743   60.6996 H       1  ZINC000753658424    0.1300
     15 O15       -10.0585   -1.1049   60.6715 O.3     1  ZINC000753658424   -0.5500
     16 C16        -8.8842    0.0766   62.3960 C.2     1  ZINC000753658424   -0.0600
     17 C17        -9.4358    1.1827   62.9267 C.2     1  ZINC000753658424   -0.1800
     18 C18        -9.1815    1.1406   64.3168 C.2     1  ZINC000753658424   -0.2100
     19 C19        -8.4899    0.0113   64.5525 C.2     1  ZINC000753658424    0.0000
     20 C20        -7.9979   -0.4565   65.8979 C.3     1  ZINC000753658424   -0.0800
     21 O21        -8.3177   -0.6321   63.3862 O.3     1  ZINC000753658424   -0.1700
     22 C22        -9.8432    0.3304   55.6490 C.2     1  ZINC000753658424   -0.0100
     23 C23       -11.0231   -0.3838   56.2561 C.3     1  ZINC000753658424   -0.0500
     24 C24       -12.3097    0.0856   55.5738 C.3     1  ZINC000753658424   -0.1500
     25 C25       -10.8625   -1.8926   56.0591 C.3     1  ZINC000753658424   -0.1500
     26 H26       -10.0601   -2.3133   52.0567 H       1  ZINC000753658424    0.0800
     27 H27        -8.4373   -1.6523   52.3694 H       1  ZINC000753658424    0.1000
     28 H28        -9.3198   -2.4950   53.6652 H       1  ZINC000753658424    0.0900
     29 H29        -7.8610    2.2050   52.4346 H       1  ZINC000753658424    0.0900
     30 H30        -6.4490    1.4169   53.1788 H       1  ZINC000753658424    0.0800
     31 H31        -7.6252    0.4496   52.2573 H       1  ZINC000753658424    0.0900
     32 H32        -7.3174    2.2210   55.5836 H       1  ZINC000753658424    0.4200
     33 H33        -8.7378   -0.3324   58.4084 H       1  ZINC000753658424    0.4000
     34 H34        -8.1015    1.5972   60.3261 H       1  ZINC000753658424    0.0900
     35 H35        -9.8779    1.4980   60.2757 H       1  ZINC000753658424    0.0800
     36 H36       -10.0640   -1.9545   61.1333 H       1  ZINC000753658424    0.3900
     37 H37        -9.9698    1.9551   62.3932 H       1  ZINC000753658424    0.1500
     38 H38        -9.4844    1.8745   65.0491 H       1  ZINC000753658424    0.1500
     39 H39        -8.7601   -1.0785   66.3674 H       1  ZINC000753658424    0.0800
     40 H40        -7.0842   -1.0366   65.7692 H       1  ZINC000753658424    0.0800
     41 H41        -7.7937    0.4074   66.5305 H       1  ZINC000753658424    0.0900
     42 H42       -11.0744   -0.1599   57.3216 H       1  ZINC000753658424    0.1100
     43 H43       -12.3110   -0.2442   54.5349 H       1  ZINC000753658424    0.0500
     44 H44       -13.1705   -0.3384   56.0907 H       1  ZINC000753658424    0.0600
     45 H45       -12.3638    1.1737   55.6098 H       1  ZINC000753658424    0.0600
     46 H46        -9.9895   -2.2402   56.6114 H       1  ZINC000753658424    0.0500
     47 H47       -11.7523   -2.4037   56.4269 H       1  ZINC000753658424    0.0600
     48 H48       -10.7315   -2.1087   54.9989 H       1  ZINC000753658424    0.0600
@<TRIPOS>BOND
     1     1     2    1
     2     1    26    1
     3     1    27    1
     4     1    28    1
     5     2     3    2
     6     2     4    1
     7     4    22    1
     8     4     5    2
     9     5     6    1
    10     5     7    1
    11     6    29    1
    12     6    30    1
    13     6    31    1
    14     7     8    1
    15     7    32    1
    16     8     9    1
    17     8    22    2
    18     9    10    2
    19     9    11   am
    20    11    12    1
    21    11    33    1
    22    12    13    1
    23    12    34    1
    24    12    35    1
    25    13    14    1
    26    13    15    1
    27    13    16    1
    28    15    36    1
    29    16    21    1
    30    16    17    2
    31    17    18    1
    32    17    37    1
    33    18    19    2
    34    18    38    1
    35    19    20    1
    36    19    21    1
    37    20    39    1
    38    20    40    1
    39    20    41    1
    40    22    23    1
    41    23    24    1
    42    23    25    1
    43    23    42    1
    44    24    43    1
    45    24    44    1
    46    24    45    1
    47    25    46    1
    48    25    47    1
    49    25    48    1
@<TRIPOS>SUBSTRUCTURE
     1 ZINC000753658424        1 TEMP              0 ****  ****    0 ROOT


##########                                Name:    ZINC000788423111
##########                DOCK_Rotatable_Bonds:                   7
##########                         Heavy_Atoms:                  23
##########                    Molecular_Weight:             399.243
##########                DOCK_Rotatable_Bonds:                   7
##########                       Formal_Charge:         1.04308e-07
##########                     HBond_Acceptors:                   8
##########                        HBond_Donors:                   1
##########                         Heavy_Atoms:                  23
##########                          Grid_Score:          -29.803448
##########                     Grid_vdw_energy:          -28.584505
##########                      Grid_es_energy:           -1.218944
##########           Internal_energy_repulsive:            5.222828

@<TRIPOS>MOLECULE
ZINC000788423111
 35 37 1 0 0
SMALL
USER_CHARGES


@<TRIPOS>ATOM
      1 O1         -8.1129   -0.6679   59.7422 O.3     1  ZINC000788423111   -0.5400
      2 C2         -8.9373    0.3308   60.3466 C.3     1  ZINC000788423111    0.1000
      3 H3         -8.7595    0.3467   61.4219 H       1  ZINC000788423111    0.1300
      4 C4        -10.4086    0.0088   60.0776 C.3     1  ZINC000788423111    0.0300
      5 O5        -10.6220   -1.3973   60.2186 O.3     1  ZINC000788423111   -0.2900
      6 C6        -11.6938   -1.9264   59.5722 C.ar    1  ZINC000788423111    0.1700
      7 C7        -11.5057   -2.7223   58.4523 C.ar    1  ZINC000788423111   -0.2400
      8 C8        -12.5987   -3.2600   57.7954 C.ar    1  ZINC000788423111    0.1500
      9 F9        -12.4167   -4.0355   56.7043 F       1  ZINC000788423111   -0.1300
     10 C10       -13.8788   -3.0038   58.2567 C.ar    1  ZINC000788423111   -0.1600
     11 C11       -14.0673   -2.2096   59.3736 C.ar    1  ZINC000788423111   -0.0300
     12 Br12      -15.8169   -1.8615   60.0010 Br      1  ZINC000788423111   -0.0200
     13 C13       -12.9775   -1.6756   60.0354 C.ar    1  ZINC000788423111   -0.1300
     14 C14        -8.5981    1.6996   59.7532 C.3     1  ZINC000788423111    0.1000
     15 N15        -8.1273    1.5319   58.3762 N.pl3   1  ZINC000788423111   -0.1300
     16 N16        -6.9807    1.9108   57.9303 N.2     1  ZINC000788423111   -0.0500
     17 N17        -6.8962    1.6089   56.6792 N.2     1  ZINC000788423111   -0.2600
     18 C18        -8.0484    1.0134   56.3347 C.2     1  ZINC000788423111    0.2400
     19 C19        -8.4097    0.4938   54.9977 C.2     1  ZINC000788423111   -0.1300
     20 C20        -7.7270    0.7304   53.8605 C.2     1  ZINC000788423111   -0.0800
     21 C21        -8.2590    0.1368   52.7342 C.2     1  ZINC000788423111   -0.1400
     22 C22        -9.3669   -0.5803   52.9421 C.2     1  ZINC000788423111   -0.2000
     23 S23        -9.7929   -0.5348   54.6477 S.3     1  ZINC000788423111    0.1700
     24 N24        -8.7941    0.9769   57.4231 N.2     1  ZINC000788423111   -0.2900
     25 H25        -8.5949   -1.4566   59.4581 H       1  ZINC000788423111    0.3800
     26 H26       -11.0342    0.5445   60.7916 H       1  ZINC000788423111    0.0900
     27 H27       -10.6686    0.3159   59.0647 H       1  ZINC000788423111    0.0800
     28 H28       -10.5070   -2.9220   58.0927 H       1  ZINC000788423111    0.1500
     29 H29       -14.7312   -3.4242   57.7437 H       1  ZINC000788423111    0.1500
     30 H30       -13.1255   -1.0559   60.9074 H       1  ZINC000788423111    0.1500
     31 H31        -9.4882    2.3287   59.7587 H       1  ZINC000788423111    0.1300
     32 H32        -7.8166    2.1706   60.3496 H       1  ZINC000788423111    0.1300
     33 H33        -6.8341    1.3373   53.8326 H       1  ZINC000788423111    0.1500
     34 H34        -7.8127    0.2443   51.7566 H       1  ZINC000788423111    0.1500
     35 H35        -9.9155   -1.1115   52.1785 H       1  ZINC000788423111    0.1700
@<TRIPOS>BOND
     1     1     2    1
     2     1    25    1
     3     2     3    1
     4     2     4    1
     5     2    14    1
     6     4     5    1
     7     4    26    1
     8     4    27    1
     9     5     6    1
    10     6    13   ar
    11     6     7   ar
    12     7     8   ar
    13     7    28    1
    14     8     9    1
    15     8    10   ar
    16    10    11   ar
    17    10    29    1
    18    11    12    1
    19    11    13   ar
    20    13    30    1
    21    14    15    1
    22    14    31    1
    23    14    32    1
    24    15    24    1
    25    15    16    1
    26    16    17    2
    27    17    18    1
    28    18    19    1
    29    18    24    2
    30    19    23    1
    31    19    20    2
    32    20    21    1
    33    20    33    1
    34    21    22    2
    35    21    34    1
    36    22    23    1
    37    22    35    1
@<TRIPOS>SUBSTRUCTURE
     1 ZINC000788423111        1 TEMP              0 ****  ****    0 ROOT


##########                                Name:    ZINC001326371752
##########                DOCK_Rotatable_Bonds:                   5
##########                         Heavy_Atoms:                  25
##########                    Molecular_Weight:             360.397
##########                DOCK_Rotatable_Bonds:                   5
##########                       Formal_Charge:           0.0199999
##########                     HBond_Acceptors:                  10
##########                        HBond_Donors:                   0
##########                         Heavy_Atoms:                  25
##########                          Grid_Score:          -29.801283
##########                     Grid_vdw_energy:          -29.182091
##########                      Grid_es_energy:           -0.619192
##########           Internal_energy_repulsive:            7.974119

@<TRIPOS>MOLECULE
ZINC001326371752
 41 44 1 0 0
SMALL
USER_CHARGES


@<TRIPOS>ATOM
      1 C1         -8.5610   -0.2826   66.5889 C.3     1  ZINC001326371752    0.0300
      2 O2         -9.1893    0.3785   65.4887 O.3     1  ZINC001326371752   -0.3800
      3 C3         -8.6772   -0.0048   64.2109 C.3     1  ZINC001326371752    0.0500
      4 C4         -9.2785    0.8952   63.1296 C.3     1  ZINC001326371752    0.1200
      5 N5         -8.8068    0.4587   61.8131 N.pl3   1  ZINC001326371752   -0.2800
      6 N6         -8.4394   -0.7379   61.4974 N.2     1  ZINC001326371752   -0.0800
      7 N7         -8.0786   -0.7825   60.2593 N.2     1  ZINC001326371752   -0.2500
      8 C8         -8.2115    0.4307   59.7357 C.2     1  ZINC001326371752   -0.0400
      9 C9         -8.6860    1.2333   60.7202 C.2     1  ZINC001326371752    0.0000
     10 C10        -8.9933    2.6976   60.5582 C.3     1  ZINC001326371752   -0.0600
     11 C11        -8.2836    3.2145   59.2997 C.3     1  ZINC001326371752    0.1200
     12 N12        -8.4855    2.2570   58.2023 N.am    1  ZINC001326371752   -0.6100
     13 C13        -9.1773    2.6070   57.0999 C.2     1  ZINC001326371752    0.6100
     14 O14        -9.6435    3.7271   57.0043 O.2     1  ZINC001326371752   -0.5100
     15 C15        -9.3685    1.6377   56.0149 C.2     1  ZINC001326371752   -0.3400
     16 C16       -10.5643    0.9189   55.9038 C.2     1  ZINC001326371752    0.2400
     17 N17       -10.7015    0.0554   54.9156 N.2     1  ZINC001326371752   -0.5100
     18 C18        -9.7395   -0.1504   54.0258 C.2     1  ZINC001326371752    0.2900
     19 S19        -9.6779   -1.2062   52.6663 S.3     1  ZINC001326371752    0.2500
     20 C20        -8.0419   -0.7318   52.1829 C.2     1  ZINC001326371752   -0.2100
     21 C21        -7.6631    0.1755   53.0670 C.2     1  ZINC001326371752    0.0500
     22 N22        -8.5502    0.5057   54.0629 N.am    1  ZINC001326371752   -0.4600
     23 C23        -8.3517    1.4171   55.0603 C.2     1  ZINC001326371752    0.5500
     24 O24        -7.3020    2.0326   55.1288 O.2     1  ZINC001326371752   -0.5000
     25 C25        -7.9172    0.9034   58.3346 C.3     1  ZINC001326371752    0.2000
     26 H26        -9.0056    0.0628   67.5222 H       1  ZINC001326371752    0.0900
     27 H27        -8.7033   -1.3592   66.4951 H       1  ZINC001326371752    0.0500
     28 H28        -7.4950   -0.0557   66.5884 H       1  ZINC001326371752    0.0500
     29 H29        -7.5921    0.0993   64.2082 H       1  ZINC001326371752    0.0600
     30 H30        -8.9432   -1.0425   64.0093 H       1  ZINC001326371752    0.0600
     31 H31       -10.3659    0.8300   63.1659 H       1  ZINC001326371752    0.1200
     32 H32        -8.9703    1.9263   63.3024 H       1  ZINC001326371752    0.1200
     33 H33       -10.0695    2.8359   60.4537 H       1  ZINC001326371752    0.0900
     34 H34        -8.6355    3.2448   61.4303 H       1  ZINC001326371752    0.1000
     35 H35        -8.6987    4.1825   59.0192 H       1  ZINC001326371752    0.1100
     36 H36        -7.2172    3.3190   59.5001 H       1  ZINC001326371752    0.0800
     37 H37       -11.3622    1.0685   56.6161 H       1  ZINC001326371752    0.1900
     38 H38        -7.4735   -1.1050   51.3438 H       1  ZINC001326371752    0.2200
     39 H39        -6.6903    0.6408   53.0084 H       1  ZINC001326371752    0.2000
     40 H40        -6.8389    0.9366   58.1784 H       1  ZINC001326371752    0.1000
     41 H41        -8.3782    0.2346   57.6079 H       1  ZINC001326371752    0.1000
@<TRIPOS>BOND
     1     1     2    1
     2     1    26    1
     3     1    27    1
     4     1    28    1
     5     2     3    1
     6     3     4    1
     7     3    29    1
     8     3    30    1
     9     4     5    1
    10     4    31    1
    11     4    32    1
    12     5     9    1
    13     5     6    1
    14     6     7    2
    15     7     8    1
    16     8    25    1
    17     8     9    2
    18     9    10    1
    19    10    11    1
    20    10    33    1
    21    10    34    1
    22    11    12    1
    23    11    35    1
    24    11    36    1
    25    12    13   am
    26    12    25    1
    27    13    14    2
    28    13    15    1
    29    15    23    1
    30    15    16    2
    31    16    17    1
    32    16    37    1
    33    17    18    2
    34    18    22    1
    35    18    19    1
    36    19    20    1
    37    20    21    2
    38    20    38    1
    39    21    22    1
    40    21    39    1
    41    22    23   am
    42    23    24    2
    43    25    40    1
    44    25    41    1
@<TRIPOS>SUBSTRUCTURE
     1 ZINC001326371752        1 TEMP              0 ****  ****    0 ROOT


##########                                Name:    ZINC000809503567
##########                DOCK_Rotatable_Bonds:                   9
##########                         Heavy_Atoms:                  26
##########                    Molecular_Weight:             353.378
##########                DOCK_Rotatable_Bonds:                   9
##########                       Formal_Charge:          -0.0200002
##########                     HBond_Acceptors:                   7
##########                        HBond_Donors:                   1
##########                         Heavy_Atoms:                  26
##########                          Grid_Score:          -29.799150
##########                     Grid_vdw_energy:          -29.235405
##########                      Grid_es_energy:           -0.563745
##########           Internal_energy_repulsive:           11.816541

@<TRIPOS>MOLECULE
ZINC000809503567
 45 46 1 0 0
SMALL
USER_CHARGES


@<TRIPOS>ATOM
      1 C1         -5.7780    2.7664   52.1881 C.3     1  ZINC000809503567    0.0200
      2 O2         -7.1672    2.7179   51.8564 O.3     1  ZINC000809503567   -0.3100
      3 C3         -7.9027    1.7304   52.4270 C.ar    1  ZINC000809503567    0.1900
      4 C4         -7.7212    0.4130   52.0366 C.ar    1  ZINC000809503567   -0.2100
      5 C5         -8.4706   -0.5913   52.6181 C.ar    1  ZINC000809503567   -0.0200
      6 C6         -9.4074   -0.2915   53.5930 C.ar    1  ZINC000809503567   -0.1500
      7 C7        -10.2186   -1.3966   54.2189 C.3     1  ZINC000809503567    0.1700
      8 N8         -9.9020   -1.4863   55.6465 N.am    1  ZINC000809503567   -0.7000
      9 C9        -10.3701   -2.5177   56.3769 C.2     1  ZINC000809503567    0.5100
     10 O10       -11.0549   -3.3712   55.8525 O.2     1  ZINC000809503567   -0.4900
     11 C11       -10.0456   -2.6102   57.8328 C.2     1  ZINC000809503567    0.5100
     12 O12        -9.5154   -3.6086   58.2741 O.2     1  ZINC000809503567   -0.5000
     13 N13       -10.3419   -1.5848   58.6557 N.am    1  ZINC000809503567   -0.4600
     14 C14       -10.0254   -1.6761   60.0832 C.3     1  ZINC000809503567    0.0800
     15 O15       -10.9590   -0.4191   58.1405 O.3     1  ZINC000809503567   -0.1100
     16 C16       -12.1389   -0.0264   58.8446 C.3     1  ZINC000809503567    0.0800
     17 C17       -13.1097   -1.1785   58.8798 C.ar    1  ZINC000809503567   -0.0900
     18 C18       -13.6596   -1.5824   60.0820 C.ar    1  ZINC000809503567   -0.1000
     19 C19       -14.5502   -2.6393   60.1143 C.ar    1  ZINC000809503567   -0.1300
     20 C20       -14.8911   -3.2919   58.9443 C.ar    1  ZINC000809503567   -0.1100
     21 C21       -14.3418   -2.8873   57.7420 C.ar    1  ZINC000809503567   -0.1300
     22 C22       -13.4546   -1.8277   57.7092 C.ar    1  ZINC000809503567   -0.0800
     23 C23        -9.6007    1.0134   53.9938 C.ar    1  ZINC000809503567   -0.0100
     24 C24        -8.8456    2.0378   53.4181 C.ar    1  ZINC000809503567   -0.0600
     25 C25        -9.0413    3.3953   53.8297 C.1     1  ZINC000809503567    0.2600
     26 N26        -9.1966    4.4722   54.1562 N.1     1  ZINC000809503567   -0.4100
     27 H27        -5.2999    1.8341   51.8874 H       1  ZINC000809503567    0.0600
     28 H28        -5.3087    3.6002   51.6660 H       1  ZINC000809503567    0.1100
     29 H29        -5.6658    2.9018   53.2639 H       1  ZINC000809503567    0.0600
     30 H30        -6.9932    0.1712   51.2765 H       1  ZINC000809503567    0.1400
     31 H31        -8.3254   -1.6163   52.3104 H       1  ZINC000809503567    0.1400
     32 H32       -11.2803   -1.1829   54.0949 H       1  ZINC000809503567    0.0900
     33 H33        -9.9793   -2.3427   53.7334 H       1  ZINC000809503567    0.0900
     34 H34        -9.3556   -0.8034   56.0659 H       1  ZINC000809503567    0.4100
     35 H35        -9.0221   -1.2880   60.2585 H       1  ZINC000809503567    0.0800
     36 H36       -10.7463   -1.0901   60.6534 H       1  ZINC000809503567    0.0800
     37 H37       -10.0726   -2.7180   60.3999 H       1  ZINC000809503567    0.0900
     38 H38       -11.8760    0.2585   59.8634 H       1  ZINC000809503567    0.0700
     39 H39       -12.5994    0.8214   58.3377 H       1  ZINC000809503567    0.0600
     40 H40       -13.3933   -1.0726   60.9960 H       1  ZINC000809503567    0.1200
     41 H41       -14.9793   -2.9553   61.0536 H       1  ZINC000809503567    0.1200
     42 H42       -15.5862   -4.1180   58.9696 H       1  ZINC000809503567    0.1200
     43 H43       -14.6079   -3.3974   56.8280 H       1  ZINC000809503567    0.1200
     44 H44       -13.0254   -1.5117   56.7698 H       1  ZINC000809503567    0.1300
     45 H45       -10.3323    1.2427   54.7543 H       1  ZINC000809503567    0.1400
@<TRIPOS>BOND
     1     1     2    1
     2     1    27    1
     3     1    28    1
     4     1    29    1
     5     2     3    1
     6     3    24   ar
     7     3     4   ar
     8     4     5   ar
     9     4    30    1
    10     5     6   ar
    11     5    31    1
    12     6     7    1
    13     6    23   ar
    14     7     8    1
    15     7    32    1
    16     7    33    1
    17     8     9   am
    18     8    34    1
    19     9    10    2
    20     9    11    1
    21    11    12    2
    22    11    13   am
    23    13    14    1
    24    13    15    1
    25    14    35    1
    26    14    36    1
    27    14    37    1
    28    15    16    1
    29    16    17    1
    30    16    38    1
    31    16    39    1
    32    17    22   ar
    33    17    18   ar
    34    18    19   ar
    35    18    40    1
    36    19    20   ar
    37    19    41    1
    38    20    21   ar
    39    20    42    1
    40    21    22   ar
    41    21    43    1
    42    22    44    1
    43    23    24   ar
    44    23    45    1
    45    24    25    1
    46    25    26    3
@<TRIPOS>SUBSTRUCTURE
     1 ZINC000809503567        1 TEMP              0 ****  ****    0 ROOT


##########                                Name:    ZINC000450219577
##########                DOCK_Rotatable_Bonds:                   8
##########                         Heavy_Atoms:                  26
##########                    Molecular_Weight:             353.421
##########                DOCK_Rotatable_Bonds:                   8
##########                       Formal_Charge:          -0.0199997
##########                     HBond_Acceptors:                   6
##########                        HBond_Donors:                   1
##########                         Heavy_Atoms:                  26
##########                          Grid_Score:          -29.786390
##########                     Grid_vdw_energy:          -29.152267
##########                      Grid_es_energy:           -0.634122
##########           Internal_energy_repulsive:           36.490749

@<TRIPOS>MOLECULE
ZINC000450219577
 49 51 1 0 0
SMALL
USER_CHARGES


@<TRIPOS>ATOM
      1 C1        -14.8122   -2.4978   57.4735 C.3     1  ZINC000450219577   -0.1800
      2 C2        -14.4495   -2.3320   58.9507 C.3     1  ZINC000450219577    0.1200
      3 C3        -15.0471   -1.0265   59.4792 C.3     1  ZINC000450219577   -0.1800
      4 C4        -15.0115   -3.5101   59.7490 C.3     1  ZINC000450219577   -0.1400
      5 O5        -13.0051   -2.2958   59.0933 O.3     1  ZINC000450219577   -0.3400
      6 C6        -12.3543   -1.3097   58.4561 C.2     1  ZINC000450219577    0.4700
      7 O7        -12.9705   -0.5092   57.7931 O.2     1  ZINC000450219577   -0.5000
      8 C8        -10.8554   -1.2011   58.5677 C.3     1  ZINC000450219577    0.2000
      9 H9        -10.4141   -2.1963   58.5147 H       1  ZINC000450219577    0.1400
     10 N10       -10.3421   -0.3802   57.4682 N.am    1  ZINC000450219577   -0.7100
     11 C11        -9.8569   -0.9689   56.3572 C.2     1  ZINC000450219577    0.5800
     12 O12        -9.8464   -2.1810   56.2668 O.2     1  ZINC000450219577   -0.5200
     13 C13        -9.3373   -0.1406   55.2485 C.ar    1  ZINC000450219577   -0.2500
     14 C14        -8.8495    1.1501   55.4821 C.ar    1  ZINC000450219577    0.1900
     15 N15        -8.3939    1.8556   54.4617 N.ar    1  ZINC000450219577   -0.5100
     16 C16        -8.3949    1.3600   53.2398 C.ar    1  ZINC000450219577    0.3800
     17 C17        -7.8647    2.2042   52.1097 C.3     1  ZINC000450219577   -0.1100
     18 C18        -6.3531    2.4330   52.0478 C.3     1  ZINC000450219577   -0.1500
     19 C19        -7.0281    1.5038   51.0369 C.3     1  ZINC000450219577   -0.1500
     20 N20        -8.8445    0.1488   52.9753 N.ar    1  ZINC000450219577   -0.5200
     21 C21        -9.3137   -0.6272   53.9365 C.ar    1  ZINC000450219577    0.2200
     22 C22       -10.4946   -0.5609   59.8834 C.ar    1  ZINC000450219577   -0.1100
     23 C23       -11.3117    0.4138   60.4248 C.ar    1  ZINC000450219577   -0.1000
     24 C24       -10.9807    1.0009   61.6317 C.ar    1  ZINC000450219577   -0.1200
     25 C25        -9.8329    0.6131   62.2973 C.ar    1  ZINC000450219577   -0.1100
     26 C26        -9.0164   -0.3623   61.7563 C.ar    1  ZINC000450219577   -0.1200
     27 C27        -9.3495   -0.9525   60.5515 C.ar    1  ZINC000450219577   -0.0800
     28 H28       -14.4119   -1.6585   56.9048 H       1  ZINC000450219577    0.0800
     29 H29       -14.3865   -3.4278   57.0971 H       1  ZINC000450219577    0.0600
     30 H30       -15.8966   -2.5250   57.3665 H       1  ZINC000450219577    0.0700
     31 H31       -16.1315   -1.0538   59.3722 H       1  ZINC000450219577    0.0700
     32 H32       -14.7889   -0.9085   60.5316 H       1  ZINC000450219577    0.0600
     33 H33       -14.6469   -0.1872   58.9105 H       1  ZINC000450219577    0.0800
     34 H34       -14.5857   -4.4402   59.3725 H       1  ZINC000450219577    0.0700
     35 H35       -14.7531   -3.3921   60.8013 H       1  ZINC000450219577    0.0700
     36 H36       -16.0959   -3.5374   59.6419 H       1  ZINC000450219577    0.0800
     37 H37       -10.3515    0.5871   57.5397 H       1  ZINC000450219577    0.4100
     38 H38        -8.8459    1.5632   56.4800 H       1  ZINC000450219577    0.1700
     39 H39        -8.5112    3.0213   51.7898 H       1  ZINC000450219577    0.1300
     40 H40        -6.0050    3.4011   51.6872 H       1  ZINC000450219577    0.1000
     41 H41        -5.7422    1.9731   52.8245 H       1  ZINC000450219577    0.1100
     42 H42        -6.8613    0.4325   51.1486 H       1  ZINC000450219577    0.1000
     43 H43        -7.1241    1.8604   50.0114 H       1  ZINC000450219577    0.1100
     44 H44        -9.6803   -1.6180   53.7121 H       1  ZINC000450219577    0.1800
     45 H45       -12.2085    0.7168   59.9049 H       1  ZINC000450219577    0.1200
     46 H46       -11.6187    1.7630   62.0544 H       1  ZINC000450219577    0.1200
     47 H47        -9.5740    1.0724   63.2399 H       1  ZINC000450219577    0.1300
     48 H48        -8.1194   -0.6650   62.2762 H       1  ZINC000450219577    0.1300
     49 H49        -8.7116   -1.7145   60.1288 H       1  ZINC000450219577    0.1300
@<TRIPOS>BOND
     1     1     2    1
     2     1    28    1
     3     1    29    1
     4     1    30    1
     5     2     3    1
     6     2     4    1
     7     2     5    1
     8     3    31    1
     9     3    32    1
    10     3    33    1
    11     4    34    1
    12     4    35    1
    13     4    36    1
    14     5     6    1
    15     6     7    2
    16     6     8    1
    17     8     9    1
    18     8    10    1
    19     8    22    1
    20    10    11   am
    21    10    37    1
    22    11    12    2
    23    11    13    1
    24    13    21   ar
    25    13    14   ar
    26    14    15   ar
    27    14    38    1
    28    15    16   ar
    29    16    17    1
    30    16    20   ar
    31    17    19    1
    32    17    18    1
    33    17    39    1
    34    18    19    1
    35    18    40    1
    36    18    41    1
    37    19    42    1
    38    19    43    1
    39    20    21   ar
    40    21    44    1
    41    22    27   ar
    42    22    23   ar
    43    23    24   ar
    44    23    45    1
    45    24    25   ar
    46    24    46    1
    47    25    26   ar
    48    25    47    1
    49    26    27   ar
    50    26    48    1
    51    27    49    1
@<TRIPOS>SUBSTRUCTURE
     1 ZINC000450219577        1 TEMP              0 ****  ****    0 ROOT


##########                                Name:    ZINC001220171460
##########                DOCK_Rotatable_Bonds:                  10
##########                         Heavy_Atoms:                  25
##########                    Molecular_Weight:             383.773
##########                DOCK_Rotatable_Bonds:                  10
##########                       Formal_Charge:           0.0199996
##########                     HBond_Acceptors:                  10
##########                        HBond_Donors:                   3
##########                         Heavy_Atoms:                  25
##########                          Grid_Score:          -29.774324
##########                     Grid_vdw_energy:          -29.377184
##########                      Grid_es_energy:           -0.397141
##########           Internal_energy_repulsive:            9.586628

@<TRIPOS>MOLECULE
ZINC001220171460
 43 44 1 0 0
SMALL
USER_CHARGES


@<TRIPOS>ATOM
      1 C1         -9.2477   -1.8080   59.8864 C.3     1  ZINC001220171460    0.0200
      2 O2        -10.2406   -1.1279   59.1160 O.3     1  ZINC001220171460   -0.3100
      3 C3        -11.3571   -1.8323   58.7880 C.ar    1  ZINC001220171460    0.1000
      4 C4        -12.3923   -1.9551   59.6994 C.ar    1  ZINC001220171460   -0.1500
      5 C5        -13.5280   -2.6717   59.3651 C.ar    1  ZINC001220171460   -0.0600
      6 Cl6       -14.8247   -2.8237   60.5094 Cl      1  ZINC001220171460   -0.0400
      7 C7        -13.6323   -3.2678   58.1191 C.ar    1  ZINC001220171460    0.1000
      8 F8        -14.7427   -3.9662   57.7964 F       1  ZINC001220171460   -0.1200
      9 C9        -12.6007   -3.1484   57.2040 C.ar    1  ZINC001220171460   -0.1200
     10 C10       -11.4632   -2.4264   57.5324 C.ar    1  ZINC001220171460    0.1800
     11 N11       -10.4171   -2.3042   56.6069 N.am    1  ZINC001220171460   -0.6700
     12 C12       -10.4210   -1.2938   55.7151 C.2     1  ZINC001220171460    0.7100
     13 O13       -11.3315   -0.4880   55.7132 O.2     1  ZINC001220171460   -0.5700
     14 N14        -9.4154   -1.1763   54.8254 N.am    1  ZINC001220171460   -0.7400
     15 C15        -9.4204   -0.0789   53.8549 C.3     1  ZINC001220171460    0.1400
     16 C16        -9.1020    1.2357   54.5699 C.3     1  ZINC001220171460   -0.1400
     17 C17        -7.6160    1.5600   54.4031 C.3     1  ZINC001220171460    0.0500
     18 H18        -7.0328    0.6427   54.4827 H       1  ZINC001220171460    0.1000
     19 N19        -7.3928    2.1694   53.0852 N.3     1  ZINC001220171460   -0.6500
     20 C20        -6.1078    1.7400   52.5174 C.3     1  ZINC001220171460    0.0100
     21 C21        -5.6777    2.3662   51.1893 C.3     1  ZINC001220171460   -0.2000
     22 C22        -4.9714    2.7639   52.4870 C.3     1  ZINC001220171460   -0.1600
     23 C23        -7.1813    2.5372   55.4971 C.3     1  ZINC001220171460    0.4600
     24 F24        -7.4785    1.9948   56.7519 F       1  ZINC001220171460   -0.1800
     25 F25        -5.8040    2.7625   55.4008 F       1  ZINC001220171460   -0.1800
     26 F26        -7.8641    3.7481   55.3389 F       1  ZINC001220171460   -0.1700
     27 H27        -9.6801   -2.1294   60.8340 H       1  ZINC001220171460    0.0600
     28 H28        -8.8932   -2.6788   59.3350 H       1  ZINC001220171460    0.0600
     29 H29        -8.4123   -1.1346   60.0782 H       1  ZINC001220171460    0.1100
     30 H30       -12.3133   -1.4916   60.6718 H       1  ZINC001220171460    0.1500
     31 H31       -12.6833   -3.6139   56.2329 H       1  ZINC001220171460    0.1800
     32 H32        -9.6906   -2.9470   56.6085 H       1  ZINC001220171460    0.4200
     33 H33        -8.6882   -1.8184   54.8278 H       1  ZINC001220171460    0.4000
     34 H34        -8.6679   -0.2676   53.0892 H       1  ZINC001220171460    0.0800
     35 H35       -10.4035   -0.0103   53.3891 H       1  ZINC001220171460    0.0700
     36 H36        -9.6997    2.0383   54.1380 H       1  ZINC001220171460    0.1000
     37 H37        -9.3359    1.1386   55.6301 H       1  ZINC001220171460    0.1000
     38 H38        -8.1538    1.9603   52.4565 H       1  ZINC001220171460    0.3600
     39 H39        -5.8415    0.6975   52.6923 H       1  ZINC001220171460    0.1200
     40 H40        -5.1283    1.7357   50.4902 H       1  ZINC001220171460    0.1000
     41 H41        -6.3482    3.0969   50.7370 H       1  ZINC001220171460    0.1000
     42 H42        -5.1772    3.7562   52.8883 H       1  ZINC001220171460    0.1000
     43 H43        -3.9574    2.3950   52.6415 H       1  ZINC001220171460    0.1000
@<TRIPOS>BOND
     1     1     2    1
     2     1    27    1
     3     1    28    1
     4     1    29    1
     5     2     3    1
     6     3    10   ar
     7     3     4   ar
     8     4     5   ar
     9     4    30    1
    10     5     6    1
    11     5     7   ar
    12     7     8    1
    13     7     9   ar
    14     9    10   ar
    15     9    31    1
    16    10    11    1
    17    11    12   am
    18    11    32    1
    19    12    13    2
    20    12    14   am
    21    14    15    1
    22    14    33    1
    23    15    16    1
    24    15    34    1
    25    15    35    1
    26    16    17    1
    27    16    36    1
    28    16    37    1
    29    17    18    1
    30    17    19    1
    31    17    23    1
    32    19    20    1
    33    19    38    1
    34    20    22    1
    35    20    21    1
    36    20    39    1
    37    21    22    1
    38    21    40    1
    39    21    41    1
    40    22    42    1
    41    22    43    1
    42    23    24    1
    43    23    25    1
    44    23    26    1
@<TRIPOS>SUBSTRUCTURE
     1 ZINC001220171460        1 TEMP              0 ****  ****    0 ROOT


##########                                Name:    ZINC000867639366
##########                DOCK_Rotatable_Bonds:                   6
##########                         Heavy_Atoms:                  25
##########                    Molecular_Weight:             388.509
##########                DOCK_Rotatable_Bonds:                   6
##########                       Formal_Charge:          0.00999961
##########                     HBond_Acceptors:                   9
##########                        HBond_Donors:                   1
##########                         Heavy_Atoms:                  25
##########                          Grid_Score:          -29.761309
##########                     Grid_vdw_energy:          -29.546492
##########                      Grid_es_energy:           -0.214818
##########           Internal_energy_repulsive:           43.950161

@<TRIPOS>MOLECULE
ZINC000867639366
 49 51 1 0 0
SMALL
USER_CHARGES


@<TRIPOS>ATOM
      1 C1         -8.8977   -0.0346   63.9570 C.3     1  ZINC000867639366    0.0300
      2 O2         -9.8655    0.1900   62.9299 O.3     1  ZINC000867639366   -0.3800
      3 C3         -9.6968    1.4258   62.2325 C.3     1  ZINC000867639366    0.0800
      4 H4         -9.1190    2.1151   62.8483 H       1  ZINC000867639366    0.0800
      5 C5        -11.0685    2.0350   61.9334 C.3     1  ZINC000867639366   -0.1400
      6 C6        -11.8930    1.0538   61.0971 C.3     1  ZINC000867639366   -0.1200
      7 C7        -11.1779    0.7965   59.7670 C.3     1  ZINC000867639366    0.1500
      8 H8        -11.1495    1.7166   59.1834 H       1  ZINC000867639366    0.0800
      9 C9        -11.9251   -0.2848   58.9837 C.3     1  ZINC000867639366   -0.1900
     10 N10        -9.8070    0.3477   60.0462 N.am    1  ZINC000867639366   -0.9800
     11 S11        -9.2308   -1.0609   59.3933 S.o2    1  ZINC000867639366    2.6900
     12 O12        -7.8512   -1.1234   59.7279 O.2     1  ZINC000867639366   -0.9500
     13 O13       -10.1620   -2.0756   59.7430 O.2     1  ZINC000867639366   -0.9400
     14 C14        -9.3107   -0.8946   57.6410 C.ar    1  ZINC000867639366   -0.6300
     15 C15        -9.6411   -1.9847   56.8577 C.ar    1  ZINC000867639366   -0.0500
     16 C16        -9.7038   -1.8542   55.4829 C.ar    1  ZINC000867639366   -0.0400
     17 C17        -9.4367   -0.6337   54.8915 C.ar    1  ZINC000867639366   -0.6300
     18 S18        -9.5160   -0.4676   53.1392 S.o2    1  ZINC000867639366    2.7000
     19 O19        -9.8192   -1.7579   52.6271 O.2     1  ZINC000867639366   -0.9400
     20 O20       -10.3152    0.6787   52.8806 O.2     1  ZINC000867639366   -0.9500
     21 N21        -7.9894   -0.1019   52.6118 N.am    1  ZINC000867639366   -1.0800
     22 C22        -7.3211    1.1117   53.0878 C.3     1  ZINC000867639366    0.0800
     23 C23        -6.7010    2.0351   52.0372 C.3     1  ZINC000867639366   -0.1800
     24 C24        -7.9802    2.4542   52.7647 C.3     1  ZINC000867639366   -0.1900
     25 C25        -9.1077    0.4567   55.6749 C.ar    1  ZINC000867639366   -0.0400
     26 C26        -9.0487    0.3272   57.0500 C.ar    1  ZINC000867639366   -0.0400
     27 C27        -8.9561    1.1728   60.9157 C.3     1  ZINC000867639366    0.1200
     28 H28        -7.8995   -0.0459   63.5194 H       1  ZINC000867639366    0.0400
     29 H29        -8.9611    0.7634   64.6967 H       1  ZINC000867639366    0.0400
     30 H30        -9.0944   -0.9926   64.4382 H       1  ZINC000867639366    0.0900
     31 H31       -11.5872    2.2389   62.8702 H       1  ZINC000867639366    0.0700
     32 H32       -10.9399    2.9651   61.3799 H       1  ZINC000867639366    0.0700
     33 H33       -12.0010    0.1146   61.6397 H       1  ZINC000867639366    0.0800
     34 H34       -12.8781    1.4785   60.9042 H       1  ZINC000867639366    0.0800
     35 H35       -12.8946    0.1002   58.6674 H       1  ZINC000867639366    0.0700
     36 H36       -11.3423   -0.5663   58.1067 H       1  ZINC000867639366    0.0600
     37 H37       -12.0709   -1.1584   59.6189 H       1  ZINC000867639366    0.1000
     38 H38        -9.8498   -2.9383   57.3197 H       1  ZINC000867639366    0.1600
     39 H39        -9.9612   -2.7061   54.8708 H       1  ZINC000867639366    0.1500
     40 H40        -7.5377   -0.6913   51.9877 H       1  ZINC000867639366    0.4200
     41 H41        -6.8071    1.0208   54.0448 H       1  ZINC000867639366    0.1400
     42 H42        -5.7787    2.5517   52.3027 H       1  ZINC000867639366    0.1100
     43 H43        -6.7904    1.7396   50.9919 H       1  ZINC000867639366    0.1000
     44 H44        -8.9110    2.4344   52.1980 H       1  ZINC000867639366    0.1000
     45 H45        -7.8994    3.2465   53.5088 H       1  ZINC000867639366    0.1000
     46 H46        -8.8993    1.4103   55.2129 H       1  ZINC000867639366    0.1500
     47 H47        -8.7917    1.1791   57.6620 H       1  ZINC000867639366    0.1500
     48 H48        -8.7464    2.1237   60.4257 H       1  ZINC000867639366    0.0900
     49 H49        -8.0216    0.6489   61.1162 H       1  ZINC000867639366    0.1000
@<TRIPOS>BOND
     1     1     2    1
     2     1    28    1
     3     1    29    1
     4     1    30    1
     5     2     3    1
     6     3     4    1
     7     3    27    1
     8     3     5    1
     9     5     6    1
    10     5    31    1
    11     5    32    1
    12     6     7    1
    13     6    33    1
    14     6    34    1
    15     7     8    1
    16     7     9    1
    17     7    10    1
    18     9    35    1
    19     9    36    1
    20     9    37    1
    21    10    11   am
    22    10    27    1
    23    11    12    2
    24    11    13    2
    25    11    14    1
    26    14    26   ar
    27    14    15   ar
    28    15    16   ar
    29    15    38    1
    30    16    17   ar
    31    16    39    1
    32    17    18    1
    33    17    25   ar
    34    18    19    2
    35    18    20    2
    36    18    21   am
    37    21    22    1
    38    21    40    1
    39    22    24    1
    40    22    23    1
    41    22    41    1
    42    23    24    1
    43    23    42    1
    44    23    43    1
    45    24    44    1
    46    24    45    1
    47    25    26   ar
    48    25    46    1
    49    26    47    1
    50    27    48    1
    51    27    49    1
@<TRIPOS>SUBSTRUCTURE
     1 ZINC000867639366        1 TEMP              0 ****  ****    0 ROOT


##########                                Name:    ZINC000015179664
##########                DOCK_Rotatable_Bonds:                   8
##########                         Heavy_Atoms:                  25
##########                    Molecular_Weight:             361.422
##########                DOCK_Rotatable_Bonds:                   8
##########                       Formal_Charge:        -2.23517e-07
##########                     HBond_Acceptors:                   8
##########                        HBond_Donors:                   1
##########                         Heavy_Atoms:                  25
##########                          Grid_Score:          -29.754206
##########                     Grid_vdw_energy:          -27.807949
##########                      Grid_es_energy:           -1.946257
##########           Internal_energy_repulsive:           24.775461

@<TRIPOS>MOLECULE
ZINC000015179664
 44 45 1 0 0
SMALL
USER_CHARGES


@<TRIPOS>ATOM
      1 C1        -10.6114   -1.2105   60.3549 C.3     1  ZINC000015179664   -0.1600
      2 C2         -9.4244   -0.4011   60.8812 C.3     1  ZINC000015179664    0.1800
      3 H3         -8.6063   -1.0765   61.1311 H       1  ZINC000015179664    0.1200
      4 C4         -9.8420    0.3596   62.1133 C.ar    1  ZINC000015179664   -0.1000
      5 C5         -8.9164    0.6354   63.1019 C.ar    1  ZINC000015179664   -0.0700
      6 C6         -9.2995    1.3335   64.2323 C.ar    1  ZINC000015179664   -0.1200
      7 C7        -10.6080    1.7557   64.3733 C.ar    1  ZINC000015179664   -0.0500
      8 C8        -11.5336    1.4807   63.3838 C.ar    1  ZINC000015179664   -0.0400
      9 N9        -12.9350    1.9326   63.5351 N.pl3   1  ZINC000015179664    0.0300
     10 O10       -13.2727    2.5467   64.5312 O.2     1  ZINC000015179664   -0.1600
     11 O11       -13.7504    1.6902   62.6633 O.2     1  ZINC000015179664   -0.1500
     12 C12       -11.1496    0.7867   62.2519 C.ar    1  ZINC000015179664   -0.0400
     13 N13        -8.9817    0.5422   59.8515 N.am    1  ZINC000015179664   -0.6100
     14 C14        -9.5248    1.9026   59.8221 C.3     1  ZINC000015179664    0.0600
     15 C15        -8.0749    0.1587   58.9313 C.2     1  ZINC000015179664    0.5200
     16 O16        -7.6242   -0.9671   58.9565 O.2     1  ZINC000015179664   -0.5200
     17 C17        -7.6208    1.1284   57.8709 C.3     1  ZINC000015179664   -0.1500
     18 C18        -8.4782    0.9507   56.6163 C.3     1  ZINC000015179664    0.1300
     19 N19        -7.7993    1.5606   55.4703 N.am    1  ZINC000015179664   -0.7300
     20 C20        -7.9212    1.0127   54.2450 C.2     1  ZINC000015179664    0.5800
     21 O21        -8.5936    0.0109   54.0908 O.2     1  ZINC000015179664   -0.5300
     22 C22        -7.2405    1.6266   53.0933 C.2     1  ZINC000015179664   -0.1500
     23 C23        -6.3909    2.6833   53.2003 C.2     1  ZINC000015179664   -0.2200
     24 S24        -5.7867    3.1319   51.6710 S.3     1  ZINC000015179664    0.1900
     25 C25        -6.6956    1.8697   50.8580 C.2     1  ZINC000015179664   -0.2300
     26 C26        -7.4015    1.1648   51.7343 C.2     1  ZINC000015179664   -0.0900
     27 H27       -10.9408   -1.9125   61.1211 H       1  ZINC000015179664    0.0800
     28 H28       -11.4296   -0.5351   60.1051 H       1  ZINC000015179664    0.0600
     29 H29       -10.3094   -1.7608   59.4638 H       1  ZINC000015179664    0.0700
     30 H30        -7.8940    0.3055   62.9918 H       1  ZINC000015179664    0.1500
     31 H31        -8.5765    1.5483   65.0052 H       1  ZINC000015179664    0.1500
     32 H32       -10.9074    2.3004   65.2565 H       1  ZINC000015179664    0.1600
     33 H33       -11.8726    0.5718   61.4790 H       1  ZINC000015179664    0.1600
     34 H34        -8.9249    2.5472   60.4645 H       1  ZINC000015179664    0.0600
     35 H35        -9.4989    2.2821   58.8006 H       1  ZINC000015179664    0.0800
     36 H36       -10.5546    1.8905   60.1793 H       1  ZINC000015179664    0.0800
     37 H37        -7.7265    2.1479   58.2418 H       1  ZINC000015179664    0.1000
     38 H38        -6.5759    0.9371   57.6271 H       1  ZINC000015179664    0.1000
     39 H39        -8.6282   -0.1121   56.4263 H       1  ZINC000015179664    0.0800
     40 H40        -9.4443    1.4330   56.7651 H       1  ZINC000015179664    0.0800
     41 H41        -7.2621    2.3589   55.5934 H       1  ZINC000015179664    0.4000
     42 H42        -6.1339    3.1719   54.1286 H       1  ZINC000015179664    0.1700
     43 H43        -6.6799    1.6889   49.7934 H       1  ZINC000015179664    0.1700
     44 H44        -8.0367    0.3362   51.4584 H       1  ZINC000015179664    0.1600
@<TRIPOS>BOND
     1     1     2    1
     2     1    27    1
     3     1    28    1
     4     1    29    1
     5     2     3    1
     6     2     4    1
     7     2    13    1
     8     4    12   ar
     9     4     5   ar
    10     5     6   ar
    11     5    30    1
    12     6     7   ar
    13     6    31    1
    14     7     8   ar
    15     7    32    1
    16     8     9    1
    17     8    12   ar
    18     9    10    2
    19     9    11    2
    20    12    33    1
    21    13    14    1
    22    13    15   am
    23    14    34    1
    24    14    35    1
    25    14    36    1
    26    15    16    2
    27    15    17    1
    28    17    18    1
    29    17    37    1
    30    17    38    1
    31    18    19    1
    32    18    39    1
    33    18    40    1
    34    19    20   am
    35    19    41    1
    36    20    21    2
    37    20    22    1
    38    22    26    1
    39    22    23    2
    40    23    24    1
    41    23    42    1
    42    24    25    1
    43    25    26    2
    44    25    43    1
    45    26    44    1
@<TRIPOS>SUBSTRUCTURE
     1 ZINC000015179664        1 TEMP              0 ****  ****    0 ROOT


##########                                Name:    ZINC000470948647
##########                DOCK_Rotatable_Bonds:                   6
##########                         Heavy_Atoms:                  29
##########                    Molecular_Weight:             412.556
##########                DOCK_Rotatable_Bonds:                   6
##########                       Formal_Charge:           0.0100001
##########                     HBond_Acceptors:                   7
##########                        HBond_Donors:                   1
##########                         Heavy_Atoms:                  29
##########                          Grid_Score:          -29.749216
##########                     Grid_vdw_energy:          -29.131149
##########                      Grid_es_energy:           -0.618067
##########           Internal_energy_repulsive:           24.304878

@<TRIPOS>MOLECULE
ZINC000470948647
 57 60 1 0 0
SMALL
USER_CHARGES


@<TRIPOS>ATOM
      1 C1        -10.9768    2.4009   65.3447 C.3     1  ZINC000470948647   -0.1100
      2 C2        -10.8597    1.8157   63.9610 C.ar    1  ZINC000470948647   -0.1000
      3 C3         -9.6696    1.2425   63.5528 C.ar    1  ZINC000470948647   -0.1100
      4 C4         -9.5591    0.7052   62.2850 C.ar    1  ZINC000470948647   -0.1100
      5 C5        -10.6450    0.7409   61.4204 C.ar    1  ZINC000470948647    0.1400
      6 N6        -10.5365    0.1972   60.1357 N.am    1  ZINC000470948647   -0.6700
      7 C7        -10.0749   -1.0584   59.9722 C.2     1  ZINC000470948647    0.5100
      8 O8         -9.7536   -1.7172   60.9386 O.2     1  ZINC000470948647   -0.4800
      9 C9         -9.9580   -1.6441   58.5886 C.3     1  ZINC000470948647    0.1200
     10 H10        -9.2634   -2.4834   58.6218 H       1  ZINC000470948647    0.1200
     11 C11       -11.3458   -2.1646   58.1504 C.3     1  ZINC000470948647   -0.0700
     12 S12       -11.9510   -0.7605   57.1231 S.3     1  ZINC000470948647   -0.2500
     13 C13       -10.2686   -0.3017   56.5338 C.3     1  ZINC000470948647    0.1600
     14 N14        -9.4224   -0.6288   57.6945 N.am    1  ZINC000470948647   -0.6000
     15 C15        -8.2337   -0.0325   57.9132 C.2     1  ZINC000470948647    0.6300
     16 O16        -7.5705   -0.3372   58.8855 O.2     1  ZINC000470948647   -0.5100
     17 C17        -7.7365    0.9912   56.9715 C.2     1  ZINC000470948647   -0.0100
     18 N18        -8.1577    1.1937   55.7390 N.2     1  ZINC000470948647   -0.2700
     19 N19        -7.5078    2.1647   55.2050 N.pl3   1  ZINC000470948647   -0.2700
     20 C20        -7.7149    2.6626   53.8428 C.3     1  ZINC000470948647    0.1500
     21 C21        -7.5095    4.1786   53.8172 C.3     1  ZINC000470948647   -0.1300
     22 C22        -7.7257    4.6985   52.3946 C.3     1  ZINC000470948647   -0.1200
     23 C23        -6.7234    4.0320   51.4501 C.3     1  ZINC000470948647   -0.1300
     24 C24        -6.9287    2.5161   51.4758 C.3     1  ZINC000470948647   -0.1200
     25 C25        -6.7126    1.9961   52.8983 C.3     1  ZINC000470948647   -0.1300
     26 C26        -6.6065    2.6605   56.0799 C.2     1  ZINC000470948647   -0.0100
     27 C27        -6.7221    1.9450   57.2232 C.2     1  ZINC000470948647   -0.1700
     28 C28       -11.8393    1.3171   61.8337 C.ar    1  ZINC000470948647   -0.1100
     29 C29       -13.0205    1.3575   60.8987 C.3     1  ZINC000470948647   -0.1100
     30 C30       -11.9448    1.8480   63.1040 C.ar    1  ZINC000470948647   -0.1000
     31 H31       -11.3158    1.6305   66.0375 H       1  ZINC000470948647    0.0700
     32 H32       -10.0041    2.7746   65.6646 H       1  ZINC000470948647    0.0700
     33 H33       -11.6951    3.2206   65.3331 H       1  ZINC000470948647    0.0700
     34 H34        -8.8254    1.2150   64.2257 H       1  ZINC000470948647    0.1200
     35 H35        -8.6289    0.2583   61.9665 H       1  ZINC000470948647    0.1400
     36 H36       -10.7935    0.7239   59.3627 H       1  ZINC000470948647    0.4100
     37 H37       -11.2533   -3.0735   57.5559 H       1  ZINC000470948647    0.1200
     38 H38       -11.9931   -2.3268   59.0122 H       1  ZINC000470948647    0.1200
     39 H39        -9.9863   -0.8993   55.6671 H       1  ZINC000470948647    0.1000
     40 H40       -10.2160    0.7627   56.3047 H       1  ZINC000470948647    0.1400
     41 H41        -8.7293    2.4279   53.5204 H       1  ZINC000470948647    0.1100
     42 H42        -8.2235    4.6534   54.4901 H       1  ZINC000470948647    0.0800
     43 H43        -6.4950    4.4132   54.1396 H       1  ZINC000470948647    0.0800
     44 H44        -8.7401    4.4638   52.0722 H       1  ZINC000470948647    0.0700
     45 H45        -7.5793    5.7785   52.3764 H       1  ZINC000470948647    0.0800
     46 H46        -6.8774    4.4024   50.4367 H       1  ZINC000470948647    0.0700
     47 H47        -5.7089    4.2667   51.7725 H       1  ZINC000470948647    0.0700
     48 H48        -7.9432    2.2814   51.1534 H       1  ZINC000470948647    0.0700
     49 H49        -6.2147    2.0413   50.8029 H       1  ZINC000470948647    0.0700
     50 H50        -5.6981    2.2308   53.2208 H       1  ZINC000470948647    0.0700
     51 H51        -6.8589    0.9161   52.9167 H       1  ZINC000470948647    0.0700
     52 H52        -5.9241    3.4785   55.9021 H       1  ZINC000470948647    0.1800
     53 H53        -6.1544    2.0710   58.1332 H       1  ZINC000470948647    0.1600
     54 H54       -13.6203    0.4571   61.0319 H       1  ZINC000470948647    0.0700
     55 H55       -13.6285    2.2349   61.1191 H       1  ZINC000470948647    0.0700
     56 H56       -12.6672    1.4096   59.8689 H       1  ZINC000470948647    0.0600
     57 H57       -12.8733    2.2959   63.4260 H       1  ZINC000470948647    0.1300
@<TRIPOS>BOND
     1     1     2    1
     2     1    31    1
     3     1    32    1
     4     1    33    1
     5     2    30   ar
     6     2     3   ar
     7     3     4   ar
     8     3    34    1
     9     4     5   ar
    10     4    35    1
    11     5     6    1
    12     5    28   ar
    13     6     7   am
    14     6    36    1
    15     7     8    2
    16     7     9    1
    17     9    10    1
    18     9    14    1
    19     9    11    1
    20    11    12    1
    21    11    37    1
    22    11    38    1
    23    12    13    1
    24    13    14    1
    25    13    39    1
    26    13    40    1
    27    14    15   am
    28    15    16    2
    29    15    17    1
    30    17    27    1
    31    17    18    2
    32    18    19    1
    33    19    20    1
    34    19    26    1
    35    20    25    1
    36    20    21    1
    37    20    41    1
    38    21    22    1
    39    21    42    1
    40    21    43    1
    41    22    23    1
    42    22    44    1
    43    22    45    1
    44    23    24    1
    45    23    46    1
    46    23    47    1
    47    24    25    1
    48    24    48    1
    49    24    49    1
    50    25    50    1
    51    25    51    1
    52    26    27    2
    53    26    52    1
    54    27    53    1
    55    28    29    1
    56    28    30   ar
    57    29    54    1
    58    29    55    1
    59    29    56    1
    60    30    57    1
@<TRIPOS>SUBSTRUCTURE
     1 ZINC000470948647        1 TEMP              0 ****  ****    0 ROOT


##########                                Name:    ZINC000369046711
##########                DOCK_Rotatable_Bonds:                   8
##########                         Heavy_Atoms:                  26
##########                    Molecular_Weight:             367.467
##########                DOCK_Rotatable_Bonds:                   8
##########                       Formal_Charge:        -7.63685e-07
##########                     HBond_Acceptors:                   8
##########                        HBond_Donors:                   1
##########                         Heavy_Atoms:                  26
##########                          Grid_Score:          -29.735289
##########                     Grid_vdw_energy:          -29.835154
##########                      Grid_es_energy:            0.099865
##########           Internal_energy_repulsive:           15.009311

@<TRIPOS>MOLECULE
ZINC000369046711
 56 58 1 0 0
SMALL
USER_CHARGES


@<TRIPOS>ATOM
      1 C1        -13.4074   -2.9449   57.2772 C.3     1  ZINC000369046711   -0.1800
      2 C2        -13.8209   -2.5132   58.6856 C.3     1  ZINC000369046711    0.1400
      3 C3        -14.1210   -1.0130   58.6917 C.3     1  ZINC000369046711   -0.1800
      4 C4        -15.0722   -3.2853   59.1088 C.3     1  ZINC000369046711   -0.1400
      5 O5        -12.7412   -2.7947   59.6147 O.3     1  ZINC000369046711   -0.3700
      6 C6        -11.4913   -2.5085   59.2042 C.2     1  ZINC000369046711    0.6500
      7 O7        -10.7893   -3.3842   58.7385 O.2     1  ZINC000369046711   -0.5700
      8 N8        -11.0187   -1.2508   59.3098 N.am    1  ZINC000369046711   -0.7100
      9 C9         -9.6592   -0.9391   58.8614 C.3     1  ZINC000369046711    0.1800
     10 H10        -9.3745   -1.6401   58.0769 H       1  ZINC000369046711    0.0900
     11 C11        -8.6983   -1.0928   60.0399 C.3     1  ZINC000369046711   -0.1300
     12 C12        -9.1088   -0.0888   61.1235 C.3     1  ZINC000369046711   -0.1200
     13 C13        -8.9221    1.3209   60.5700 C.3     1  ZINC000369046711   -0.1200
     14 C14        -9.8279    1.5607   59.3604 C.3     1  ZINC000369046711   -0.1000
     15 H15       -10.8711    1.6882   59.6492 H       1  ZINC000369046711    0.0900
     16 C16        -9.2615    2.8076   58.6275 C.3     1  ZINC000369046711    0.0400
     17 N17        -8.3076    2.3146   57.6148 N.3     1  ZINC000369046711   -0.5200
     18 C18        -6.9680    2.8753   57.8363 C.3     1  ZINC000369046711    0.1200
     19 C19        -6.3110    3.1462   56.5074 C.2     1  ZINC000369046711    0.2900
     20 N20        -6.9247    3.4743   55.3995 N.2     1  ZINC000369046711   -0.5400
     21 C21        -6.0349    3.6380   54.4214 C.2     1  ZINC000369046711    0.2000
     22 N22        -4.8373    3.4154   54.8954 N.2     1  ZINC000369046711   -0.3200
     23 N23        -4.9914    3.0987   56.2549 N.pl3   1  ZINC000369046711   -0.3700
     24 C24        -3.9267    2.7718   57.2065 C.3     1  ZINC000369046711    0.1000
     25 C25        -2.6133    3.4018   56.7386 C.3     1  ZINC000369046711    0.0500
     26 F26        -1.5962    3.0887   57.6467 F       1  ZINC000369046711   -0.2000
     27 C27        -8.2802    0.8336   57.6741 C.3     1  ZINC000369046711    0.0500
     28 C28        -9.6349    0.4607   58.3024 C.3     1  ZINC000369046711   -0.1000
     29 H29       -10.4166    0.5496   57.5480 H       1  ZINC000369046711    0.0900
     30 H30       -12.5160   -2.3949   56.9757 H       1  ZINC000369046711    0.0900
     31 H31       -13.1937   -4.0137   57.2728 H       1  ZINC000369046711    0.0600
     32 H32       -14.2179   -2.7336   56.5798 H       1  ZINC000369046711    0.0700
     33 H33       -14.9315   -0.8017   57.9944 H       1  ZINC000369046711    0.0700
     34 H34       -14.4156   -0.7054   59.6952 H       1  ZINC000369046711    0.0600
     35 H35       -13.2296   -0.4629   58.3903 H       1  ZINC000369046711    0.0900
     36 H36       -14.8584   -4.3542   59.1045 H       1  ZINC000369046711    0.0700
     37 H37       -15.3668   -2.9778   60.1122 H       1  ZINC000369046711    0.0700
     38 H38       -15.8827   -3.0740   58.4114 H       1  ZINC000369046711    0.0800
     39 H39       -11.5785   -0.5520   59.6827 H       1  ZINC000369046711    0.4000
     40 H40        -8.7599   -2.1068   60.4352 H       1  ZINC000369046711    0.0700
     41 H41        -7.6792   -0.8859   59.7133 H       1  ZINC000369046711    0.0800
     42 H42       -10.1545   -0.2430   61.3896 H       1  ZINC000369046711    0.0600
     43 H43        -8.4816   -0.2231   62.0048 H       1  ZINC000369046711    0.0700
     44 H44        -9.1641    2.0456   61.3475 H       1  ZINC000369046711    0.0700
     45 H45        -7.8825    1.4528   60.2702 H       1  ZINC000369046711    0.0600
     46 H46       -10.0705    3.3536   58.1422 H       1  ZINC000369046711    0.0800
     47 H47        -8.7482    3.4558   59.3380 H       1  ZINC000369046711    0.0800
     48 H48        -7.0520    3.8065   58.3966 H       1  ZINC000369046711    0.0800
     49 H49        -6.3655    2.1643   58.4013 H       1  ZINC000369046711    0.1000
     50 H50        -6.2658    3.9100   53.4020 H       1  ZINC000369046711    0.2200
     51 H51        -4.1865    3.1620   58.1906 H       1  ZINC000369046711    0.1200
     52 H52        -3.8103    1.6896   57.2640 H       1  ZINC000369046711    0.1100
     53 H53        -2.3540    3.0123   55.7542 H       1  ZINC000369046711    0.0900
     54 H54        -2.7294    4.4841   56.6821 H       1  ZINC000369046711    0.0800
     55 H55        -8.1935    0.4128   56.6723 H       1  ZINC000369046711    0.0900
     56 H56        -7.4600    0.4918   58.3054 H       1  ZINC000369046711    0.0600
@<TRIPOS>BOND
     1     1     2    1
     2     1    30    1
     3     1    31    1
     4     1    32    1
     5     2     3    1
     6     2     4    1
     7     2     5    1
     8     3    33    1
     9     3    34    1
    10     3    35    1
    11     4    36    1
    12     4    37    1
    13     4    38    1
    14     5     6    1
    15     6     7    2
    16     6     8   am
    17     8     9    1
    18     8    39    1
    19     9    10    1
    20     9    28    1
    21     9    11    1
    22    11    12    1
    23    11    40    1
    24    11    41    1
    25    12    13    1
    26    12    42    1
    27    12    43    1
    28    13    14    1
    29    13    44    1
    30    13    45    1
    31    14    15    1
    32    14    28    1
    33    14    16    1
    34    16    17    1
    35    16    46    1
    36    16    47    1
    37    17    18    1
    38    17    27    1
    39    18    19    1
    40    18    48    1
    41    18    49    1
    42    19    23    1
    43    19    20    2
    44    20    21    1
    45    21    22    2
    46    21    50    1
    47    22    23    1
    48    23    24    1
    49    24    25    1
    50    24    51    1
    51    24    52    1
    52    25    26    1
    53    25    53    1
    54    25    54    1
    55    27    28    1
    56    27    55    1
    57    27    56    1
    58    28    29    1
@<TRIPOS>SUBSTRUCTURE
     1 ZINC000369046711        1 TEMP              0 ****  ****    0 ROOT


##########                                Name:    ZINC000590699876
##########                DOCK_Rotatable_Bonds:                   9
##########                         Heavy_Atoms:                  30
##########                    Molecular_Weight:              421.54
##########                DOCK_Rotatable_Bonds:                   9
##########                       Formal_Charge:          -0.0300004
##########                     HBond_Acceptors:                   9
##########                        HBond_Donors:                   1
##########                         Heavy_Atoms:                  30
##########                          Grid_Score:          -29.723948
##########                     Grid_vdw_energy:          -29.310764
##########                      Grid_es_energy:           -0.413183
##########           Internal_energy_repulsive:          109.759613

@<TRIPOS>MOLECULE
ZINC000590699876
 65 67 1 0 0
SMALL
USER_CHARGES


@<TRIPOS>ATOM
      1 C1        -13.9998   -3.1686   57.6206 C.3     1  ZINC000590699876   -0.1700
      2 C2        -12.8621   -2.2141   57.8762 C.2     1  ZINC000590699876    0.5100
      3 O3        -13.0056   -1.0288   57.6633 O.2     1  ZINC000590699876   -0.5500
      4 N4        -11.6852   -2.6776   58.3414 N.am    1  ZINC000590699876   -0.7200
      5 C5        -10.5797   -1.7494   58.5916 C.3     1  ZINC000590699876    0.1100
      6 C6        -10.4768   -1.4775   60.0703 C.2     1  ZINC000590699876    0.5300
      7 O7        -10.6923   -2.3664   60.8667 O.2     1  ZINC000590699876   -0.5200
      8 N8        -10.1456   -0.2465   60.5076 N.am    1  ZINC000590699876   -0.6000
      9 C9        -10.0100    0.1562   61.9194 C.3     1  ZINC000590699876    0.1000
     10 C10        -9.0576    1.3776   61.8937 C.3     1  ZINC000590699876   -0.1300
     11 C11        -9.5029    2.0924   60.5905 C.3     1  ZINC000590699876   -0.1300
     12 C12        -9.8535    0.9156   59.6558 C.3     1  ZINC000590699876    0.1200
     13 H13       -10.7329    1.1637   59.0615 H       1  ZINC000590699876    0.1000
     14 C14        -8.6886    0.6180   58.7473 C.2     1  ZINC000590699876    0.5100
     15 O15        -7.9700   -0.3324   58.9742 O.2     1  ZINC000590699876   -0.5200
     16 N16        -8.4451    1.4078   57.6828 N.am    1  ZINC000590699876   -0.6100
     17 C17        -9.2993    2.5698   57.3939 C.3     1  ZINC000590699876    0.1000
     18 C18        -8.4025    3.7978   57.2041 C.3     1  ZINC000590699876    0.0400
     19 N19        -7.3862    3.5052   56.1846 N.3     1  ZINC000590699876   -0.5200
     20 C20        -6.6152    4.7097   55.8489 C.3     1  ZINC000590699876    0.0400
     21 C21        -5.5236    4.3518   54.8737 C.2     1  ZINC000590699876    0.5200
     22 O22        -4.3681    4.3212   55.2411 O.2     1  ZINC000590699876   -0.5100
     23 N23        -5.8312    4.0656   53.5931 N.am    1  ZINC000590699876   -0.6100
     24 C24        -7.2261    4.0983   53.1330 C.3     1  ZINC000590699876    0.1100
     25 C25        -7.5575    2.7587   52.4679 C.3     1  ZINC000590699876   -0.1400
     26 C26        -6.5375    2.4765   51.3624 C.3     1  ZINC000590699876   -0.1200
     27 C27        -5.1366    2.3802   51.9709 C.3     1  ZINC000590699876   -0.1300
     28 C28        -4.7772    3.7210   52.6290 C.3     1  ZINC000590699876    0.1400
     29 H29        -4.7058    4.4954   51.8653 H       1  ZINC000590699876    0.0700
     30 C30        -3.4373    3.5926   53.3563 C.3     1  ZINC000590699876   -0.1400
     31 C31        -6.4997    2.4153   56.6135 C.3     1  ZINC000590699876    0.0400
     32 C32        -7.3147    1.1341   56.7825 C.3     1  ZINC000590699876    0.1200
     33 H33       -14.8624   -2.6149   57.2500 H       1  ZINC000590699876    0.1000
     34 H34       -13.6954   -3.9064   56.8782 H       1  ZINC000590699876    0.0900
     35 H35       -14.2646   -3.6752   58.5487 H       1  ZINC000590699876    0.0900
     36 H36       -11.5701   -3.6257   58.5106 H       1  ZINC000590699876    0.4100
     37 H37        -9.6478   -2.1904   58.2376 H       1  ZINC000590699876    0.1000
     38 H38       -10.7634   -0.8145   58.0621 H       1  ZINC000590699876    0.1000
     39 H39       -10.9800    0.4401   62.3277 H       1  ZINC000590699876    0.0800
     40 H40        -9.5733   -0.6532   62.5044 H       1  ZINC000590699876    0.0800
     41 H41        -9.2167    2.0156   62.7630 H       1  ZINC000590699876    0.0900
     42 H42        -8.0168    1.0602   61.8291 H       1  ZINC000590699876    0.0800
     43 H43       -10.3763    2.7183   60.7730 H       1  ZINC000590699876    0.1000
     44 H44        -8.6852    2.6814   60.1750 H       1  ZINC000590699876    0.0900
     45 H45        -9.8689    2.3880   56.4825 H       1  ZINC000590699876    0.0800
     46 H46        -9.9809    2.7394   58.2273 H       1  ZINC000590699876    0.0900
     47 H47        -9.0085    4.6443   56.8811 H       1  ZINC000590699876    0.0900
     48 H48        -7.9125    4.0397   58.1473 H       1  ZINC000590699876    0.0400
     49 H49        -7.2761    5.4504   55.3988 H       1  ZINC000590699876    0.1000
     50 H50        -6.1719    5.1217   56.7555 H       1  ZINC000590699876    0.0600
     51 H51        -7.8880    4.2572   53.9843 H       1  ZINC000590699876    0.0800
     52 H52        -7.3543    4.9058   52.4122 H       1  ZINC000590699876    0.0700
     53 H53        -7.5169    1.9632   53.2119 H       1  ZINC000590699876    0.0700
     54 H54        -8.5578    2.8039   52.0371 H       1  ZINC000590699876    0.0800
     55 H55        -6.7854    1.5357   50.8710 H       1  ZINC000590699876    0.0700
     56 H56        -6.5612    3.2848   50.6315 H       1  ZINC000590699876    0.0600
     57 H57        -5.1189    1.5883   52.7197 H       1  ZINC000590699876    0.0700
     58 H58        -4.4138    2.1561   51.1864 H       1  ZINC000590699876    0.0700
     59 H59        -2.6728    3.2612   52.6535 H       1  ZINC000590699876    0.0400
     60 H60        -3.1547    4.5602   53.7709 H       1  ZINC000590699876    0.0700
     61 H61        -3.5296    2.8648   54.1624 H       1  ZINC000590699876    0.0700
     62 H62        -5.7256    2.2589   55.8620 H       1  ZINC000590699876    0.1100
     63 H63        -6.0361    2.6763   57.5649 H       1  ZINC000590699876    0.0300
     64 H64        -6.6853    0.3533   57.2094 H       1  ZINC000590699876    0.0900
     65 H65        -7.6958    0.8120   55.8134 H       1  ZINC000590699876    0.0800
@<TRIPOS>BOND
     1     1     2    1
     2     1    33    1
     3     1    34    1
     4     1    35    1
     5     2     3    2
     6     2     4   am
     7     4     5    1
     8     4    36    1
     9     5     6    1
    10     5    37    1
    11     5    38    1
    12     6     7    2
    13     6     8   am
    14     8    12    1
    15     8     9    1
    16     9    10    1
    17     9    39    1
    18     9    40    1
    19    10    11    1
    20    10    41    1
    21    10    42    1
    22    11    12    1
    23    11    43    1
    24    11    44    1
    25    12    13    1
    26    12    14    1
    27    14    15    2
    28    14    16   am
    29    16    32    1
    30    16    17    1
    31    17    18    1
    32    17    45    1
    33    17    46    1
    34    18    19    1
    35    18    47    1
    36    18    48    1
    37    19    20    1
    38    19    31    1
    39    20    21    1
    40    20    49    1
    41    20    50    1
    42    21    22    2
    43    21    23   am
    44    23    28    1
    45    23    24    1
    46    24    25    1
    47    24    51    1
    48    24    52    1
    49    25    26    1
    50    25    53    1
    51    25    54    1
    52    26    27    1
    53    26    55    1
    54    26    56    1
    55    27    28    1
    56    27    57    1
    57    27    58    1
    58    28    29    1
    59    28    30    1
    60    30    59    1
    61    30    60    1
    62    30    61    1
    63    31    32    1
    64    31    62    1
    65    31    63    1
    66    32    64    1
    67    32    65    1
@<TRIPOS>SUBSTRUCTURE
     1 ZINC000590699876        1 TEMP              0 ****  ****    0 ROOT


##########                                Name:    ZINC001053792610
##########                DOCK_Rotatable_Bonds:                   5
##########                         Heavy_Atoms:                  25
##########                    Molecular_Weight:             347.374
##########                DOCK_Rotatable_Bonds:                   5
##########                       Formal_Charge:          -0.0400001
##########                     HBond_Acceptors:                   9
##########                        HBond_Donors:                   2
##########                         Heavy_Atoms:                  25
##########                          Grid_Score:          -29.722858
##########                     Grid_vdw_energy:          -30.199030
##########                      Grid_es_energy:            0.476172
##########           Internal_energy_repulsive:            6.380233

@<TRIPOS>MOLECULE
ZINC001053792610
 46 49 1 0 0
SMALL
USER_CHARGES


@<TRIPOS>ATOM
      1 C1         -9.3305    0.1413   53.3455 C.3     1  ZINC001053792610   -0.1000
      2 C2         -9.3187   -0.2738   54.7942 C.ar    1  ZINC001053792610    0.0800
      3 C3         -8.5081    0.3904   55.6975 C.ar    1  ZINC001053792610    0.0600
      4 N4         -8.4977    0.0264   56.9679 N.ar    1  ZINC001053792610   -0.4200
      5 C5         -9.2614   -0.9718   57.3753 C.ar    1  ZINC001053792610    0.0800
      6 C6         -9.2499   -1.3866   58.8240 C.3     1  ZINC001053792610    0.0700
      7 N7         -8.8828   -0.2359   59.6601 N.3     1  ZINC001053792610   -0.4500
      8 C8         -9.1624   -0.5060   61.0842 C.3     1  ZINC001053792610   -0.0100
      9 C9         -9.7025    0.9190   61.1859 C.3     1  ZINC001053792610    0.0800
     10 C10        -9.9683    0.7641   59.6900 C.3     1  ZINC001053792610   -0.0100
     11 C11       -10.9556    1.0830   62.0603 C.3     1  ZINC001053792610   -0.1500
     12 C12       -10.4016    1.8867   63.2704 C.3     1  ZINC001053792610    0.1100
     13 H13       -11.1787    2.5053   63.7197 H       1  ZINC001053792610    0.1200
     14 N14        -9.8006    0.9951   64.2654 N.am    1  ZINC001053792610   -0.7100
     15 C15        -9.5225    1.4546   65.5015 C.2     1  ZINC001053792610    0.5000
     16 O16        -9.7711    2.6060   65.7906 O.2     1  ZINC001053792610   -0.5100
     17 C17        -8.9026    0.5379   66.5244 C.3     1  ZINC001053792610    0.0800
     18 H18        -9.6761    0.0213   67.0926 H       1  ZINC001053792610    0.1300
     19 C19        -7.9629   -0.4761   65.8436 C.3     1  ZINC001053792610    0.0500
     20 O20        -6.6569   -0.1907   66.4231 O.3     1  ZINC001053792610   -0.3200
     21 C21        -6.7677    0.8136   67.2999 C.2     1  ZINC001053792610    0.6500
     22 O22        -5.8246    1.2529   67.9274 O.2     1  ZINC001053792610   -0.5100
     23 N23        -8.0167    1.2919   67.4244 N.am    1  ZINC001053792610   -0.7100
     24 C24        -9.3236    2.7598   62.5785 C.3     1  ZINC001053792610    0.0400
     25 O25        -8.7599    1.9210   61.5542 O.3     1  ZINC001053792610   -0.3300
     26 C26       -10.0721   -1.6363   56.4718 C.ar    1  ZINC001053792610    0.0600
     27 N27       -10.0865   -1.2688   55.2027 N.ar    1  ZINC001053792610   -0.4400
     28 H28       -10.0911    0.9070   53.1932 H       1  ZINC001053792610    0.0800
     29 H29        -8.3533    0.5408   53.0740 H       1  ZINC001053792610    0.0800
     30 H30        -9.5556   -0.7237   52.7215 H       1  ZINC001053792610    0.0800
     31 H31        -7.8838    1.2061   55.3643 H       1  ZINC001053792610    0.1700
     32 H32       -10.2408   -1.7409   59.1084 H       1  ZINC001053792610    0.1000
     33 H33        -8.5233   -2.1863   58.9673 H       1  ZINC001053792610    0.0600
     34 H34        -9.9226   -1.2713   61.2404 H       1  ZINC001053792610    0.0800
     35 H35        -8.2647   -0.6742   61.6791 H       1  ZINC001053792610    0.0900
     36 H36        -9.7477    1.6627   59.1138 H       1  ZINC001053792610    0.1000
     37 H37       -10.9497    0.3473   59.4636 H       1  ZINC001053792610    0.0800
     38 H38       -11.7249    1.6496   61.5358 H       1  ZINC001053792610    0.1000
     39 H39       -11.3375    0.1132   62.3790 H       1  ZINC001053792610    0.1000
     40 H40        -9.6030    0.0739   64.0346 H       1  ZINC001053792610    0.4000
     41 H41        -8.2692   -1.4962   66.0754 H       1  ZINC001053792610    0.1200
     42 H42        -7.9456   -0.3169   64.7654 H       1  ZINC001053792610    0.1100
     43 H43        -8.2874    2.0165   68.0097 H       1  ZINC001053792610    0.4400
     44 H44        -9.7809    3.6439   62.1341 H       1  ZINC001053792610    0.0800
     45 H45        -8.5552    3.0503   63.2949 H       1  ZINC001053792610    0.0900
     46 H46       -10.6963   -2.4523   56.8048 H       1  ZINC001053792610    0.1600
@<TRIPOS>BOND
     1     1     2    1
     2     1    28    1
     3     1    29    1
     4     1    30    1
     5     2    27   ar
     6     2     3   ar
     7     3     4   ar
     8     3    31    1
     9     4     5   ar
    10     5     6    1
    11     5    26   ar
    12     6     7    1
    13     6    32    1
    14     6    33    1
    15     7    10    1
    16     7     8    1
    17     8     9    1
    18     8    34    1
    19     8    35    1
    20     9    25    1
    21     9    10    1
    22     9    11    1
    23    10    36    1
    24    10    37    1
    25    11    12    1
    26    11    38    1
    27    11    39    1
    28    12    13    1
    29    12    14    1
    30    12    24    1
    31    14    15   am
    32    14    40    1
    33    15    16    2
    34    15    17    1
    35    17    18    1
    36    17    23    1
    37    17    19    1
    38    19    20    1
    39    19    41    1
    40    19    42    1
    41    20    21    1
    42    21    22    2
    43    21    23   am
    44    23    43    1
    45    24    25    1
    46    24    44    1
    47    24    45    1
    48    26    27   ar
    49    26    46    1
@<TRIPOS>SUBSTRUCTURE
     1 ZINC001053792610        1 TEMP              0 ****  ****    0 ROOT


##########                                Name:     oleObject52.pdb
##########                DOCK_Rotatable_Bonds:                  10
##########                         Heavy_Atoms:                  38
##########                    Molecular_Weight:              533.07
##########                DOCK_Rotatable_Bonds:                  10
##########                       Formal_Charge:         0.000300027
##########                     HBond_Acceptors:                   8
##########                        HBond_Donors:                   0
##########                         Heavy_Atoms:                  38
##########                          Grid_Score:          -29.722410
##########                     Grid_vdw_energy:          -29.969818
##########                      Grid_es_energy:            0.247407
##########           Internal_energy_repulsive:          147.924652

@<TRIPOS>MOLECULE
oleObject52.pdb
 71 74 1 0 0
SMALL
NO_CHARGES


@<TRIPOS>ATOM
      1 C         -14.3317   -4.2626   57.6188 C.ar    1  UNL        -0.0596
      2 C         -14.8748   -3.4541   58.6286 C.ar    1  UNL        -0.0314
      3 C         -14.4008   -2.1390   58.8220 C.ar    1  UNL         0.0800
      4 C         -13.3747   -1.6311   57.9916 C.ar    1  UNL         0.0089
      5 C         -12.8344   -2.4587   56.9839 C.ar    1  UNL        -0.0541
      6 C         -13.3107   -3.7651   56.7977 C.ar    1  UNL        -0.0617
      7 C         -12.8604   -0.2002   58.2116 C.3     1  UNL         0.0953
      8 C         -12.0186   -0.0689   59.4930 C.ar    1  UNL         0.0684
      9 C         -11.0468   -1.0363   59.8529 C.ar    1  UNL        -0.0272
     10 C         -10.3092   -0.8377   61.0351 C.ar    1  UNL        -0.0559
     11 C         -10.5566    0.3032   61.8120 C.ar    1  UNL        -0.0435
     12 C         -11.5339    1.2117   61.3794 C.ar    1  UNL         0.0272
     13 N         -12.2446    1.0308   60.2507 N.ar    1  UNL        -0.2587
     14 C         -10.7672   -2.2663   58.9979 C.3     1  UNL        -0.0379
     15 N         -12.2450    0.4216   57.0044 N.am    1  UNL        -0.2917
     16 C         -10.8591    0.3773   56.8176 C.2     1  UNL         0.2180
     17 O         -10.1715   -0.3789   57.4834 O.2     1  UNL        -0.2772
     18 C         -10.2914    1.0450   55.5391 C.3     1  UNL         0.0385
     19 C          -8.9669    0.3885   55.0798 C.3     1  UNL        -0.0289
     20 C          -7.7808    0.7760   55.9891 C.3     1  UNL        -0.0010
     21 N          -7.6102    2.2456   56.0638 N.4     1  UNL        -0.3010
     22 C          -8.8301    2.9432   56.5263 C.3     1  UNL        -0.0010
     23 C         -10.0818    2.5749   55.6922 C.3     1  UNL        -0.0289
     24 C          -6.4190    2.6822   56.8255 C.3     1  UNL         0.0222
     25 C          -6.2362    4.2138   56.8560 C.3     1  UNL         0.0661
     26 O          -4.8633    4.4854   57.1899 O.3     1  UNL        -0.3432
     27 C          -3.7982    4.1545   56.3747 C.ar    1  UNL         0.0937
     28 C          -3.8960    4.1811   54.9676 C.ar    1  UNL        -0.0289
     29 C          -2.7882    3.8373   54.1750 C.ar    1  UNL        -0.0417
     30 C          -1.5746    3.4644   54.7780 C.ar    1  UNL         0.0537
     31 C          -1.4728    3.4369   56.1792 C.ar    1  UNL        -0.0230
     32 C          -2.5789    3.7803   56.9744 C.ar    1  UNL         0.0721
     33 CL         -2.4125    3.7335   58.7195 Cl      1  UNL        -0.0814
     34 C          -0.4447    3.1135   53.9665 C.1     1  UNL         0.0992
     35 N           0.4598    2.8311   53.3037 N.1     1  UNL        -0.1924
     36 C         -13.1570    1.1042   56.0610 C.3     1  UNL         0.0037
     37 O         -14.9144   -1.3250   59.8172 O.3     1  UNL        -0.3490
     38 C         -15.9518   -1.7315   60.7255 C.3     1  UNL         0.0422
     39 H         -14.7006   -5.2740   57.4750 H       1  UNL         0.0624
     40 H         -15.6620   -3.8614   59.2539 H       1  UNL         0.0651
     41 H         -12.0414   -2.0972   56.3384 H       1  UNL         0.0627
     42 H         -12.8874   -4.3910   56.0174 H       1  UNL         0.0623
     43 H         -13.7670    0.3862   58.3978 H       1  UNL         0.0627
     44 H          -9.5525   -1.5527   61.3449 H       1  UNL         0.0627
     45 H         -10.0003    0.4828   62.7271 H       1  UNL         0.0639
     46 H         -11.7533    2.1124   61.9512 H       1  UNL         0.0840
     47 H         -11.6912   -2.8072   58.7682 H       1  UNL         0.0280
     48 H         -10.0946   -2.9688   59.5055 H       1  UNL         0.0280
     49 H         -10.2948   -1.9835   58.0487 H       1  UNL         0.0280
     50 H         -11.0289    0.9178   54.7397 H       1  UNL         0.0402
     51 H          -8.7437    0.7148   54.0557 H       1  UNL         0.0288
     52 H          -9.0674   -0.7023   55.0415 H       1  UNL         0.0288
     53 H          -6.8792    0.3022   55.5841 H       1  UNL         0.0431
     54 H          -7.9486    0.3715   56.9962 H       1  UNL         0.0431
     55 H          -8.6814    4.0290   56.4663 H       1  UNL         0.0431
     56 H          -9.0114    2.7003   57.5809 H       1  UNL         0.0431
     57 H          -9.9676    3.0138   54.6925 H       1  UNL         0.0288
     58 H         -10.9742    3.0365   56.1340 H       1  UNL         0.0288
     59 H          -5.5161    2.2217   56.4034 H       1  UNL         0.0455
     60 H          -6.5097    2.3376   57.8639 H       1  UNL         0.0455
     61 H          -6.9041    4.6456   57.6123 H       1  UNL         0.0586
     62 H          -6.4748    4.6437   55.8758 H       1  UNL         0.0586
     63 H          -4.8215    4.4661   54.4776 H       1  UNL         0.0651
     64 H          -2.8748    3.8615   53.0917 H       1  UNL         0.0638
     65 H          -0.5377    3.1497   56.6530 H       1  UNL         0.0653
     66 H         -14.0486    1.4732   56.5808 H       1  UNL         0.0433
     67 H         -13.4672    0.4095   55.2709 H       1  UNL         0.0433
     68 H         -12.6628    1.9735   55.6119 H       1  UNL         0.0433
     69 H         -16.1759   -0.9142   61.4220 H       1  UNL         0.0535
     70 H         -15.6318   -2.6055   61.3068 H       1  UNL         0.0535
     71 H         -16.8682   -1.9798   60.1754 H       1  UNL         0.0535
@<TRIPOS>BOND
     1     1     2   ar
     2     1     6   ar
     3     1    39    1
     4     2     3   ar
     5     2    40    1
     6     3     4   ar
     7     3    37    1
     8     4     5   ar
     9     4     7    1
    10     5     6   ar
    11     5    41    1
    12     6    42    1
    13     7     8    1
    14     7    15    1
    15     7    43    1
    16     8     9   ar
    17     8    13   ar
    18     9    10   ar
    19     9    14    1
    20    10    11   ar
    21    10    44    1
    22    11    12   ar
    23    11    45    1
    24    12    13   ar
    25    12    46    1
    26    14    47    1
    27    14    48    1
    28    14    49    1
    29    15    16   am
    30    15    36    1
    31    16    17    2
    32    16    18    1
    33    18    19    1
    34    18    23    1
    35    18    50    1
    36    19    20    1
    37    19    51    1
    38    19    52    1
    39    20    21    1
    40    20    53    1
    41    20    54    1
    42    21    22    1
    43    21    24    1
    44    22    23    1
    45    22    55    1
    46    22    56    1
    47    23    57    1
    48    23    58    1
    49    24    25    1
    50    24    59    1
    51    24    60    1
    52    25    26    1
    53    25    61    1
    54    25    62    1
    55    26    27    1
    56    27    28   ar
    57    27    32   ar
    58    28    29   ar
    59    28    63    1
    60    29    30   ar
    61    29    64    1
    62    30    31   ar
    63    30    34    1
    64    31    32   ar
    65    31    65    1
    66    32    33    1
    67    34    35    3
    68    36    66    1
    69    36    67    1
    70    36    68    1
    71    37    38    1
    72    38    69    1
    73    38    70    1
    74    38    71    1
@<TRIPOS>SUBSTRUCTURE
     1 UNL         1 TEMP              0 ****  ****    0 ROOT


##########                                Name:    ZINC001579482641
##########                DOCK_Rotatable_Bonds:                   5
##########                         Heavy_Atoms:                  26
##########                    Molecular_Weight:             355.359
##########                DOCK_Rotatable_Bonds:                   5
##########                       Formal_Charge:                0.05
##########                     HBond_Acceptors:                  11
##########                        HBond_Donors:                   1
##########                         Heavy_Atoms:                  26
##########                          Grid_Score:          -29.684778
##########                     Grid_vdw_energy:          -27.442249
##########                      Grid_es_energy:           -2.242528
##########           Internal_energy_repulsive:           11.356271

@<TRIPOS>MOLECULE
ZINC001579482641
 43 46 1 0 0
SMALL
USER_CHARGES


@<TRIPOS>ATOM
      1 C1         -6.9306    1.4585   51.2246 C.3     1  ZINC001579482641    0.0300
      2 O2         -7.3369    0.9211   52.5109 O.3     1  ZINC001579482641   -0.3300
      3 C3         -6.9090    1.5737   53.6091 C.2     1  ZINC001579482641    0.5300
      4 O4         -6.0544    2.4316   53.5115 O.2     1  ZINC001579482641   -0.4900
      5 C5         -7.4789    1.2460   54.9321 C.ar    1  ZINC001579482641    0.0900
      6 C6         -6.8352    1.6895   56.0887 C.ar    1  ZINC001579482641   -0.0800
      7 C7         -7.3728    1.3801   57.3248 C.ar    1  ZINC001579482641   -0.1200
      8 C8         -8.5463    0.6312   57.3711 C.ar    1  ZINC001579482641    0.1100
      9 N9         -9.1206    0.2983   58.5903 N.3     1  ZINC001579482641   -0.4600
     10 C10        -8.1936   -0.5246   59.4086 C.3     1  ZINC001579482641    0.0400
     11 C11        -8.7398   -0.3490   60.8477 C.3     1  ZINC001579482641   -0.1100
     12 C12        -9.1856    1.1312   60.8701 C.3     1  ZINC001579482641   -0.0100
     13 H13        -8.4071    1.7541   61.3105 H       1  ZINC001579482641    0.0900
     14 C14       -10.4715    1.2785   61.6420 C.2     1  ZINC001579482641    0.1800
     15 N15       -11.6681    1.4012   61.1353 N.2     1  ZINC001579482641   -0.2600
     16 N16       -12.5309    1.5044   62.0832 N.2     1  ZINC001579482641   -0.2900
     17 C17       -11.9240    1.4523   63.2375 C.2     1  ZINC001579482641    0.1500
     18 N18       -10.6003    1.3024   62.9905 N.pl3   1  ZINC001579482641   -0.4800
     19 C19        -9.5255    1.1963   63.9804 C.3     1  ZINC001579482641    0.0700
     20 C20        -9.4002    1.5089   59.3927 C.3     1  ZINC001579482641    0.0600
     21 C21        -9.1412    0.2176   56.1670 C.ar    1  ZINC001579482641    0.2300
     22 C22       -10.3912   -0.5807   56.2005 C.2     1  ZINC001579482641    0.2100
     23 N23       -10.5517   -1.8118   55.7567 N.2     1  ZINC001579482641   -0.2600
     24 N24       -11.7774   -2.1498   55.9666 N.pl3   1  ZINC001579482641   -0.2300
     25 N25       -12.3987   -1.1726   56.5288 N.2     1  ZINC001579482641   -0.0500
     26 N26       -11.5764   -0.1926   56.6931 N.2     1  ZINC001579482641   -0.2000
     27 N27        -8.5999    0.5379   55.0057 N.ar    1  ZINC001579482641   -0.4000
     28 H28        -5.8426    1.4604   51.1588 H       1  ZINC001579482641    0.0700
     29 H29        -7.3418    0.8405   50.4264 H       1  ZINC001579482641    0.1100
     30 H30        -7.3025    2.4780   51.1230 H       1  ZINC001579482641    0.0700
     31 H31        -5.9260    2.2683   56.0188 H       1  ZINC001579482641    0.1600
     32 H32        -6.8932    1.7114   58.2340 H       1  ZINC001579482641    0.1600
     33 H33        -8.2379   -1.5707   59.1052 H       1  ZINC001579482641    0.1000
     34 H34        -7.1747   -0.1445   59.3346 H       1  ZINC001579482641    0.0600
     35 H35        -9.5888   -1.0102   61.0214 H       1  ZINC001579482641    0.1000
     36 H36        -7.9547   -0.5265   61.5826 H       1  ZINC001579482641    0.0800
     37 H37       -12.3909    1.5134   64.2095 H       1  ZINC001579482641    0.2200
     38 H38        -9.3724    0.1488   64.2397 H       1  ZINC001579482641    0.0800
     39 H39        -8.6055    1.6055   63.5631 H       1  ZINC001579482641    0.0900
     40 H40        -9.7990    1.7558   64.8750 H       1  ZINC001579482641    0.0900
     41 H41        -8.7148    2.3080   59.1104 H       1  ZINC001579482641    0.0600
     42 H42       -10.4308    1.8277   59.2369 H       1  ZINC001579482641    0.1000
     43 H43       -12.1704   -3.0064   55.7365 H       1  ZINC001579482641    0.4800
@<TRIPOS>BOND
     1     1     2    1
     2     1    28    1
     3     1    29    1
     4     1    30    1
     5     2     3    1
     6     3     4    2
     7     3     5    1
     8     5    27   ar
     9     5     6   ar
    10     6     7   ar
    11     6    31    1
    12     7     8   ar
    13     7    32    1
    14     8     9    1
    15     8    21   ar
    16     9    20    1
    17     9    10    1
    18    10    11    1
    19    10    33    1
    20    10    34    1
    21    11    12    1
    22    11    35    1
    23    11    36    1
    24    12    13    1
    25    12    14    1
    26    12    20    1
    27    14    18    1
    28    14    15    2
    29    15    16    1
    30    16    17    2
    31    17    18    1
    32    17    37    1
    33    18    19    1
    34    19    38    1
    35    19    39    1
    36    19    40    1
    37    20    41    1
    38    20    42    1
    39    21    22    1
    40    21    27   ar
    41    22    26    1
    42    22    23    2
    43    23    24    1
    44    24    25    1
    45    24    43    1
    46    25    26    2
@<TRIPOS>SUBSTRUCTURE
     1 ZINC001579482641        1 TEMP              0 ****  ****    0 ROOT


##########                                Name:    ZINC000487792031
##########                DOCK_Rotatable_Bonds:                  12
##########                         Heavy_Atoms:                  29
##########                    Molecular_Weight:             414.569
##########                DOCK_Rotatable_Bonds:                  12
##########                       Formal_Charge:          -0.0100001
##########                     HBond_Acceptors:                   6
##########                        HBond_Donors:                   1
##########                         Heavy_Atoms:                  29
##########                          Grid_Score:          -29.681942
##########                     Grid_vdw_energy:          -29.264441
##########                      Grid_es_energy:           -0.417502
##########           Internal_energy_repulsive:           23.863682

@<TRIPOS>MOLECULE
ZINC000487792031
 59 60 1 0 0
SMALL
USER_CHARGES


@<TRIPOS>ATOM
      1 C1         -1.0352    1.8977   63.7681 C.2     1  ZINC000487792031   -0.1900
      2 C2         -0.6556    2.5960   62.7267 C.2     1  ZINC000487792031   -0.1500
      3 C3         -1.1518    2.2290   61.3519 C.3     1  ZINC000487792031   -0.0900
      4 C4         -0.0920    2.5979   60.3119 C.3     1  ZINC000487792031   -0.0900
      5 C5         -0.7062    2.5312   58.9121 C.3     1  ZINC000487792031   -0.0700
      6 H6         -1.1200    1.5368   58.7440 H       1  ZINC000487792031    0.1100
      7 C7         -1.8030    3.5580   58.7954 C.2     1  ZINC000487792031    0.5200
      8 O8         -1.6315    4.6798   59.2233 O.2     1  ZINC000487792031   -0.5300
      9 N9         -2.9746    3.2298   58.2156 N.am    1  ZINC000487792031   -0.7200
     10 C10        -4.0414    4.2274   58.1037 C.3     1  ZINC000487792031    0.1500
     11 C11        -5.3785    3.5551   58.2801 C.ar    1  ZINC000487792031   -0.0500
     12 C12        -5.7295    2.4914   57.4701 C.ar    1  ZINC000487792031   -0.1200
     13 C13        -6.9560    1.8746   57.6320 C.ar    1  ZINC000487792031   -0.0200
     14 C14        -7.8314    2.3212   58.6043 C.ar    1  ZINC000487792031   -0.6700
     15 S15        -9.3949    1.5355   58.8102 S.o2    1  ZINC000487792031    2.6900
     16 O16       -10.1631    2.3848   59.6517 O.2     1  ZINC000487792031   -0.9500
     17 O17        -9.8179    1.1375   57.5134 O.2     1  ZINC000487792031   -0.9500
     18 N18        -9.1342    0.1417   59.6654 N.am    1  ZINC000487792031   -1.0000
     19 C19        -8.2468   -0.8926   59.1277 C.3     1  ZINC000487792031    0.1200
     20 C20        -9.0606   -2.1495   58.8130 C.3     1  ZINC000487792031   -0.1800
     21 C21        -9.7910   -0.0572   60.9598 C.3     1  ZINC000487792031    0.1100
     22 C22        -9.0621    0.7557   62.0318 C.3     1  ZINC000487792031   -0.1800
     23 C23        -7.4798    3.3842   59.4152 C.ar    1  ZINC000487792031   -0.0200
     24 C24        -6.2516    3.9985   59.2559 C.ar    1  ZINC000487792031   -0.1200
     25 C25         0.3576    2.8133   57.8828 C.ar    1  ZINC000487792031   -0.0800
     26 C26         1.5743    2.1605   57.9494 C.ar    1  ZINC000487792031   -0.1100
     27 C27         2.5502    2.4193   57.0051 C.ar    1  ZINC000487792031   -0.1100
     28 C28         2.3091    3.3306   55.9940 C.ar    1  ZINC000487792031   -0.1200
     29 C29         1.0921    3.9827   55.9268 C.ar    1  ZINC000487792031   -0.1200
     30 C30         0.1147    3.7207   56.8686 C.ar    1  ZINC000487792031   -0.1100
     31 H31        -0.6796    2.1608   64.7534 H       1  ZINC000487792031    0.1000
     32 H32        -1.7071    1.0618   63.6419 H       1  ZINC000487792031    0.1000
     33 H33         0.0130    3.4347   62.8534 H       1  ZINC000487792031    0.1100
     34 H34        -1.3449    1.1571   61.3094 H       1  ZINC000487792031    0.0700
     35 H35        -2.0727    2.7727   61.1408 H       1  ZINC000487792031    0.0700
     36 H36         0.2681    3.6088   60.5028 H       1  ZINC000487792031    0.0800
     37 H37         0.7404    1.8972   60.3772 H       1  ZINC000487792031    0.0700
     38 H38        -3.1113    2.3329   57.8724 H       1  ZINC000487792031    0.4000
     39 H39        -3.9117    4.9863   58.8754 H       1  ZINC000487792031    0.0800
     40 H40        -3.9978    4.6973   57.1212 H       1  ZINC000487792031    0.0800
     41 H41        -5.0457    2.1423   56.7106 H       1  ZINC000487792031    0.1400
     42 H42        -7.2306    1.0440   56.9987 H       1  ZINC000487792031    0.1400
     43 H43        -7.7745   -0.5278   58.2156 H       1  ZINC000487792031    0.0800
     44 H44        -7.4793   -1.1315   59.8638 H       1  ZINC000487792031    0.0800
     45 H45        -9.5329   -2.5143   59.7251 H       1  ZINC000487792031    0.0600
     46 H46        -9.8281   -1.9106   58.0769 H       1  ZINC000487792031    0.0600
     47 H47        -8.4004   -2.9190   58.4130 H       1  ZINC000487792031    0.0700
     48 H48       -10.8277    0.2733   60.8958 H       1  ZINC000487792031    0.0900
     49 H49        -9.7622   -1.1144   61.2233 H       1  ZINC000487792031    0.0900
     50 H50        -8.0253    0.4253   62.0958 H       1  ZINC000487792031    0.0600
     51 H51        -9.0909    1.8129   61.7682 H       1  ZINC000487792031    0.0600
     52 H52        -9.5508    0.6078   62.9947 H       1  ZINC000487792031    0.0700
     53 H53        -8.1635    3.7329   60.1750 H       1  ZINC000487792031    0.1400
     54 H54        -5.9770    4.8289   59.8894 H       1  ZINC000487792031    0.1400
     55 H55         1.7626    1.4486   58.7393 H       1  ZINC000487792031    0.1200
     56 H56         3.5010    1.9098   57.0575 H       1  ZINC000487792031    0.1200
     57 H57         3.0718    3.5333   55.2566 H       1  ZINC000487792031    0.1200
     58 H58         0.9040    4.6949   55.1371 H       1  ZINC000487792031    0.1200
     59 H59        -0.8362    4.2302   56.8162 H       1  ZINC000487792031    0.1200
@<TRIPOS>BOND
     1     1     2    2
     2     1    31    1
     3     1    32    1
     4     2     3    1
     5     2    33    1
     6     3     4    1
     7     3    34    1
     8     3    35    1
     9     4     5    1
    10     4    36    1
    11     4    37    1
    12     5     6    1
    13     5     7    1
    14     5    25    1
    15     7     8    2
    16     7     9   am
    17     9    10    1
    18     9    38    1
    19    10    11    1
    20    10    39    1
    21    10    40    1
    22    11    24   ar
    23    11    12   ar
    24    12    13   ar
    25    12    41    1
    26    13    14   ar
    27    13    42    1
    28    14    15    1
    29    14    23   ar
    30    15    16    2
    31    15    17    2
    32    15    18   am
    33    18    19    1
    34    18    21    1
    35    19    20    1
    36    19    43    1
    37    19    44    1
    38    20    45    1
    39    20    46    1
    40    20    47    1
    41    21    22    1
    42    21    48    1
    43    21    49    1
    44    22    50    1
    45    22    51    1
    46    22    52    1
    47    23    24   ar
    48    23    53    1
    49    24    54    1
    50    25    30   ar
    51    25    26   ar
    52    26    27   ar
    53    26    55    1
    54    27    28   ar
    55    27    56    1
    56    28    29   ar
    57    28    57    1
    58    29    30   ar
    59    29    58    1
    60    30    59    1
@<TRIPOS>SUBSTRUCTURE
     1 ZINC000487792031        1 TEMP              0 ****  ****    0 ROOT


##########                                Name:     oleObject17.pdb
##########                DOCK_Rotatable_Bonds:                   8
##########                         Heavy_Atoms:                  29
##########                    Molecular_Weight:             435.393
##########                DOCK_Rotatable_Bonds:                   8
##########                       Formal_Charge:         0.000400059
##########                     HBond_Acceptors:                   6
##########                        HBond_Donors:                   0
##########                         Heavy_Atoms:                  29
##########                          Grid_Score:          -29.667177
##########                     Grid_vdw_energy:          -29.017014
##########                      Grid_es_energy:           -0.650164
##########           Internal_energy_repulsive:           23.675583

@<TRIPOS>MOLECULE
oleObject17.pdb
 57 59 1 0 0
SMALL
NO_CHARGES


@<TRIPOS>ATOM
      1 C          -8.4612    0.6999   53.4023 C.3     1  UNL         0.0391
      2 C          -8.5051    2.1883   53.7548 C.ar    1  UNL        -0.0277
      3 C          -7.9689    3.1933   52.9108 C.ar    1  UNL        -0.0463
      4 C          -8.0185    4.5404   53.3204 C.ar    1  UNL        -0.0590
      5 C          -8.5941    4.8962   54.5487 C.ar    1  UNL        -0.0620
      6 C          -9.1401    3.9060   55.3759 C.ar    1  UNL        -0.0619
      7 C          -9.0996    2.5620   54.9762 C.ar    1  UNL        -0.0572
      8 C          -7.3404    2.8688   51.5600 C.3     1  UNL        -0.0394
      9 N          -9.5955   -0.0565   53.9746 N.am    1  UNL        -0.3003
     10 C          -9.5128   -0.6251   55.2454 C.2     1  UNL         0.2175
     11 O          -8.6481   -0.2549   56.0212 O.2     1  UNL        -0.2772
     12 C         -10.7629   -1.3965   55.7451 C.3     1  UNL         0.0384
     13 C         -11.9410   -0.4568   56.1062 C.3     1  UNL        -0.0289
     14 C         -11.6375    0.3651   57.3740 C.3     1  UNL        -0.0010
     15 N         -11.3262   -0.5033   58.5305 N.4     1  UNL        -0.3010
     16 C         -10.2537   -1.4952   58.2824 C.3     1  UNL        -0.0010
     17 C         -10.4661   -2.2992   56.9737 C.3     1  UNL        -0.0289
     18 C         -11.1661    0.2440   59.7989 C.3     1  UNL         0.0222
     19 C          -9.7003    0.6221   60.1147 C.3     1  UNL         0.0661
     20 O          -9.6904    1.4643   61.2797 O.3     1  UNL        -0.3432
     21 C          -9.3404    1.0034   62.5345 C.ar    1  UNL         0.0937
     22 C          -8.3667   -0.0027   62.7154 C.ar    1  UNL        -0.0288
     23 C          -8.0322   -0.4389   64.0079 C.ar    1  UNL        -0.0408
     24 C          -8.6683    0.1231   65.1258 C.ar    1  UNL         0.0422
     25 C          -9.6404    1.1211   64.9543 C.ar    1  UNL        -0.0221
     26 C          -9.9764    1.5600   63.6627 C.ar    1  UNL         0.0723
     27 CL        -11.1908    2.8125   63.4835 Cl      1  UNL        -0.0814
     28 CL         -8.2488   -0.4220   66.7356 Cl      1  UNL        -0.0843
     29 C         -10.7936   -0.1739   53.1233 C.3     1  UNL         0.0031
     30 H          -7.5304    0.2385   53.7505 H       1  UNL         0.0520
     31 H          -8.4679    0.6048   52.3092 H       1  UNL         0.0520
     32 H          -7.6079    5.3196   52.6845 H       1  UNL         0.0626
     33 H          -8.6226    5.9382   54.8549 H       1  UNL         0.0623
     34 H          -9.5921    4.1782   56.3253 H       1  UNL         0.0623
     35 H          -9.5219    1.8026   55.6275 H       1  UNL         0.0626
     36 H          -8.0295    2.2930   50.9301 H       1  UNL         0.0280
     37 H          -6.4191    2.2875   51.6793 H       1  UNL         0.0280
     38 H          -7.0813    3.7786   51.0045 H       1  UNL         0.0280
     39 H         -11.0851   -2.0534   54.9285 H       1  UNL         0.0402
     40 H         -12.8423   -1.0585   56.2815 H       1  UNL         0.0288
     41 H         -12.1789    0.2178   55.2772 H       1  UNL         0.0288
     42 H         -12.5047    0.9974   57.6040 H       1  UNL         0.0431
     43 H         -10.7892    1.0258   57.1623 H       1  UNL         0.0431
     44 H         -10.2021   -2.1992   59.1228 H       1  UNL         0.0431
     45 H          -9.2845   -0.9867   58.2304 H       1  UNL         0.0431
     46 H         -11.3129   -2.9819   57.1215 H       1  UNL         0.0288
     47 H          -9.5894   -2.9297   56.7774 H       1  UNL         0.0288
     48 H         -11.5623   -0.3543   60.6293 H       1  UNL         0.0455
     49 H         -11.7603    1.1656   59.7515 H       1  UNL         0.0455
     50 H          -9.2636    1.1651   59.2687 H       1  UNL         0.0586
     51 H          -9.1099   -0.2837   60.2984 H       1  UNL         0.0586
     52 H          -7.8648   -0.4540   61.8657 H       1  UNL         0.0651
     53 H          -7.2814   -1.2128   64.1410 H       1  UNL         0.0639
     54 H         -10.1322    1.5549   65.8203 H       1  UNL         0.0655
     55 H         -10.5038   -0.2363   52.0667 H       1  UNL         0.0433
     56 H         -11.4419    0.6995   53.2627 H       1  UNL         0.0433
     57 H         -11.3515   -1.0835   53.3773 H       1  UNL         0.0433
@<TRIPOS>BOND
     1     1     2    1
     2     1     9    1
     3     1    30    1
     4     1    31    1
     5     2     3   ar
     6     2     7   ar
     7     3     4   ar
     8     3     8    1
     9     4     5   ar
    10     4    32    1
    11     5     6   ar
    12     5    33    1
    13     6     7   ar
    14     6    34    1
    15     7    35    1
    16     8    36    1
    17     8    37    1
    18     8    38    1
    19     9    10   am
    20     9    29    1
    21    10    11    2
    22    10    12    1
    23    12    13    1
    24    12    17    1
    25    12    39    1
    26    13    14    1
    27    13    40    1
    28    13    41    1
    29    14    15    1
    30    14    42    1
    31    14    43    1
    32    15    16    1
    33    15    18    1
    34    16    17    1
    35    16    44    1
    36    16    45    1
    37    17    46    1
    38    17    47    1
    39    18    19    1
    40    18    48    1
    41    18    49    1
    42    19    20    1
    43    19    50    1
    44    19    51    1
    45    20    21    1
    46    21    22   ar
    47    21    26   ar
    48    22    23   ar
    49    22    52    1
    50    23    24   ar
    51    23    53    1
    52    24    25   ar
    53    24    28    1
    54    25    26   ar
    55    25    54    1
    56    26    27    1
    57    29    55    1
    58    29    56    1
    59    29    57    1
@<TRIPOS>SUBSTRUCTURE
     1 UNL         1 TEMP              0 ****  ****    0 ROOT


##########                                Name:    ZINC000538774026
##########                DOCK_Rotatable_Bonds:                  10
##########                         Heavy_Atoms:                  29
##########                    Molecular_Weight:             414.496
##########                DOCK_Rotatable_Bonds:                  10
##########                       Formal_Charge:            0.049999
##########                     HBond_Acceptors:                   9
##########                        HBond_Donors:                   2
##########                         Heavy_Atoms:                  29
##########                          Grid_Score:          -29.599916
##########                     Grid_vdw_energy:          -24.653740
##########                      Grid_es_energy:           -4.946176
##########           Internal_energy_repulsive:           69.671936

@<TRIPOS>MOLECULE
ZINC000538774026
 61 62 1 0 0
SMALL
USER_CHARGES


@<TRIPOS>ATOM
      1 C1        -12.9170    5.3899   67.0835 C.3     1  ZINC000538774026   -0.1500
      2 C2        -12.8561    4.0461   67.8126 C.3     1  ZINC000538774026   -0.1100
      3 C3        -14.0067    3.1561   67.3385 C.3     1  ZINC000538774026   -0.1400
      4 C4        -11.5224    3.3609   67.5084 C.3     1  ZINC000538774026    0.1400
      5 N5        -11.4054    3.1391   66.0650 N.pl3   1  ZINC000538774026   -0.3400
      6 N6        -12.3508    3.4993   65.0962 N.2     1  ZINC000538774026   -0.2500
      7 C7        -11.8957    3.1409   63.9229 C.2     1  ZINC000538774026    0.0500
      8 C8        -10.6420    2.5384   64.1011 C.2     1  ZINC000538774026    0.0800
      9 N9         -9.8205    2.0165   63.0830 N.am    1  ZINC000538774026   -0.6600
     10 C10       -10.2488    0.9789   62.3371 C.2     1  ZINC000538774026    0.7100
     11 O11       -11.3451    0.4944   62.5420 O.2     1  ZINC000538774026   -0.5700
     12 N12        -9.4620    0.4784   61.3640 N.am    1  ZINC000538774026   -0.7300
     13 C13        -9.9269   -0.6506   60.5544 C.3     1  ZINC000538774026    0.1600
     14 C14       -10.8527   -0.1385   59.4491 C.3     1  ZINC000538774026   -0.1300
     15 C15       -10.0901    0.8464   58.5607 C.3     1  ZINC000538774026   -0.1000
     16 C16        -8.8872    0.1402   57.9319 C.3     1  ZINC000538774026   -0.0800
     17 C17        -8.1361    1.1104   57.0569 C.2     1  ZINC000538774026    0.4700
     18 O18        -6.9286    1.0842   57.0240 O.2     1  ZINC000538774026   -0.5000
     19 O19        -8.8086    2.0034   56.3139 O.3     1  ZINC000538774026   -0.3500
     20 C20        -9.0894    1.6373   54.9371 C.3     1  ZINC000538774026    0.1200
     21 C21        -7.7748    1.5114   54.1646 C.3     1  ZINC000538774026   -0.1800
     22 C22        -9.8295    0.2986   54.9063 C.3     1  ZINC000538774026   -0.1400
     23 C23        -9.9599    2.7164   54.2900 C.3     1  ZINC000538774026   -0.1800
     24 C24        -7.9615   -0.3718   59.0372 C.3     1  ZINC000538774026   -0.1100
     25 C25        -8.7240   -1.3568   59.9256 C.3     1  ZINC000538774026   -0.1300
     26 C26       -10.3582    2.5530   65.4283 C.2     1  ZINC000538774026   -0.0500
     27 C27        -9.1120    2.0096   66.0784 C.3     1  ZINC000538774026    0.3500
     28 F28        -8.5669    2.9801   66.9259 F       1  ZINC000538774026   -0.1900
     29 F29        -9.4334    0.8687   66.8218 F       1  ZINC000538774026   -0.1900
     30 H30       -13.8671    5.8782   67.3001 H       1  ZINC000538774026    0.0600
     31 H31       -12.0973    6.0240   67.4213 H       1  ZINC000538774026    0.0600
     32 H32       -12.8298    5.2249   66.0096 H       1  ZINC000538774026    0.0600
     33 H33       -12.9433    4.2112   68.8865 H       1  ZINC000538774026    0.0800
     34 H34       -13.9196    2.9910   66.2646 H       1  ZINC000538774026    0.0600
     35 H35       -13.9633    2.1987   67.8578 H       1  ZINC000538774026    0.0600
     36 H36       -14.9569    3.6443   67.5551 H       1  ZINC000538774026    0.0600
     37 H37       -10.7028    3.9951   67.8461 H       1  ZINC000538774026    0.1000
     38 H38       -11.4789    2.4037   68.0277 H       1  ZINC000538774026    0.1000
     39 H39       -12.3998    3.2843   62.9786 H       1  ZINC000538774026    0.2100
     40 H40        -8.9465    2.4037   62.9188 H       1  ZINC000538774026    0.4100
     41 H41        -8.5880    0.8656   61.1998 H       1  ZINC000538774026    0.4000
     42 H42       -10.4701   -1.3523   61.1872 H       1  ZINC000538774026    0.1000
     43 H43       -11.1985   -0.9785   58.8467 H       1  ZINC000538774026    0.0800
     44 H44       -11.7096    0.3646   59.8970 H       1  ZINC000538774026    0.0800
     45 H45       -10.7497    1.2112   57.7733 H       1  ZINC000538774026    0.0700
     46 H46        -9.7442    1.6864   59.1631 H       1  ZINC000538774026    0.0700
     47 H47        -9.2332   -0.6997   57.3295 H       1  ZINC000538774026    0.1100
     48 H48        -7.1546    0.7427   54.6258 H       1  ZINC000538774026    0.0600
     49 H49        -7.9856    1.2366   53.1311 H       1  ZINC000538774026    0.0700
     50 H50        -7.2476    2.4651   54.1867 H       1  ZINC000538774026    0.0800
     51 H51       -10.7660    0.3883   55.4566 H       1  ZINC000538774026    0.0700
     52 H52       -10.0402    0.0238   53.8727 H       1  ZINC000538774026    0.0800
     53 H53        -9.2093   -0.4701   55.3674 H       1  ZINC000538774026    0.0700
     54 H54        -9.4327    3.6701   54.3120 H       1  ZINC000538774026    0.0800
     55 H55       -10.1708    2.4416   53.2565 H       1  ZINC000538774026    0.0700
     56 H56       -10.8965    2.8061   54.8404 H       1  ZINC000538774026    0.0600
     57 H57        -7.1045   -0.8749   58.5892 H       1  ZINC000538774026    0.0800
     58 H58        -7.6156    0.4681   59.6396 H       1  ZINC000538774026    0.0600
     59 H59        -8.0644   -1.7216   60.7130 H       1  ZINC000538774026    0.0800
     60 H60        -9.0699   -2.1967   59.3231 H       1  ZINC000538774026    0.0900
     61 H61        -8.3849    1.7491   65.3092 H       1  ZINC000538774026    0.1300
@<TRIPOS>BOND
     1     1     2    1
     2     1    30    1
     3     1    31    1
     4     1    32    1
     5     2     3    1
     6     2     4    1
     7     2    33    1
     8     3    34    1
     9     3    35    1
    10     3    36    1
    11     4     5    1
    12     4    37    1
    13     4    38    1
    14     5    26    1
    15     5     6    1
    16     6     7    2
    17     7     8    1
    18     7    39    1
    19     8     9    1
    20     8    26    2
    21     9    10   am
    22     9    40    1
    23    10    11    2
    24    10    12   am
    25    12    13    1
    26    12    41    1
    27    13    25    1
    28    13    14    1
    29    13    42    1
    30    14    15    1
    31    14    43    1
    32    14    44    1
    33    15    16    1
    34    15    45    1
    35    15    46    1
    36    16    17    1
    37    16    24    1
    38    16    47    1
    39    17    18    2
    40    17    19    1
    41    19    20    1
    42    20    21    1
    43    20    22    1
    44    20    23    1
    45    21    48    1
    46    21    49    1
    47    21    50    1
    48    22    51    1
    49    22    52    1
    50    22    53    1
    51    23    54    1
    52    23    55    1
    53    23    56    1
    54    24    25    1
    55    24    57    1
    56    24    58    1
    57    25    59    1
    58    25    60    1
    59    26    27    1
    60    27    28    1
    61    27    29    1
    62    27    61    1
@<TRIPOS>SUBSTRUCTURE
     1 ZINC000538774026        1 TEMP              0 ****  ****    0 ROOT


##########                                Name:    ZINC000281092425
##########                DOCK_Rotatable_Bonds:                   8
##########                         Heavy_Atoms:                  23
##########                    Molecular_Weight:             332.304
##########                DOCK_Rotatable_Bonds:                   8
##########                       Formal_Charge:         2.98023e-08
##########                     HBond_Acceptors:                   9
##########                        HBond_Donors:                   2
##########                         Heavy_Atoms:                  23
##########                          Grid_Score:          -29.587551
##########                     Grid_vdw_energy:          -28.519535
##########                      Grid_es_energy:           -1.068015
##########           Internal_energy_repulsive:           22.525965

@<TRIPOS>MOLECULE
ZINC000281092425
 41 42 1 0 0
SMALL
USER_CHARGES


@<TRIPOS>ATOM
      1 O1        -15.6035   -3.5197   59.6320 O.2     1  ZINC000281092425   -0.1800
      2 N2        -14.5938   -2.8877   59.8866 N.pl3   1  ZINC000281092425    0.0400
      3 O3        -14.5060   -2.2775   60.9370 O.2     1  ZINC000281092425   -0.1500
      4 C4        -13.4713   -2.8663   58.9223 C.ar    1  ZINC000281092425   -0.1200
      5 C5        -13.5719   -3.5590   57.7309 C.ar    1  ZINC000281092425    0.0200
      6 C6        -12.5262   -3.5415   56.8281 C.ar    1  ZINC000281092425   -0.2200
      7 C7        -11.3705   -2.8264   57.1164 C.ar    1  ZINC000281092425    0.3000
      8 N8        -10.3134   -2.8082   56.2038 N.pl3   1  ZINC000281092425   -0.7200
      9 C9         -9.7712   -1.5300   55.7365 C.3     1  ZINC000281092425    0.1200
     10 C10       -10.8054   -0.8298   54.8527 C.3     1  ZINC000281092425   -0.0900
     11 H11       -11.6263   -1.5151   54.6415 H       1  ZINC000281092425    0.0900
     12 C12       -11.3450    0.4041   55.5787 C.3     1  ZINC000281092425    0.0800
     13 O13       -12.6262    0.7473   55.0470 O.3     1  ZINC000281092425   -0.5700
     14 C14       -10.1478   -0.4019   53.5392 C.3     1  ZINC000281092425   -0.1100
     15 H15       -10.8515    0.1515   52.9173 H       1  ZINC000281092425    0.0900
     16 C16        -8.8696    0.4380   53.8089 C.3     1  ZINC000281092425   -0.1600
     17 C17        -8.0424    0.1320   52.5349 C.3     1  ZINC000281092425    0.0500
     18 O18        -8.3179   -1.2444   52.2304 O.3     1  ZINC000281092425   -0.3900
     19 C19        -9.5883   -1.6247   52.7810 C.3     1  ZINC000281092425    0.0700
     20 C20       -11.2680   -2.1297   58.3129 C.ar    1  ZINC000281092425   -0.2800
     21 C21       -12.3211   -2.1458   59.2135 C.ar    1  ZINC000281092425    0.2300
     22 O22       -12.2240   -1.4644   60.3853 O.3     1  ZINC000281092425   -0.2900
     23 C23       -11.9128   -0.0722   60.3023 C.3     1  ZINC000281092425    0.4100
     24 F24       -12.8153    0.5567   59.4378 F       1  ZINC000281092425   -0.1900
     25 F25       -12.0070    0.5033   61.5740 F       1  ZINC000281092425   -0.1900
     26 H26       -14.4696   -4.1154   57.5052 H       1  ZINC000281092425    0.1600
     27 H27       -12.6071   -4.0843   55.8980 H       1  ZINC000281092425    0.1500
     28 H28        -9.9382   -3.6417   55.8795 H       1  ZINC000281092425    0.4100
     29 H29        -9.5390   -0.8985   56.5941 H       1  ZINC000281092425    0.0800
     30 H30        -8.8631   -1.7092   55.1608 H       1  ZINC000281092425    0.0800
     31 H31       -11.4393    0.1873   56.6427 H       1  ZINC000281092425    0.0500
     32 H32       -10.6576    1.2383   55.4374 H       1  ZINC000281092425    0.0500
     33 H33       -12.6319    0.8799   54.0892 H       1  ZINC000281092425    0.3800
     34 H34        -9.1048    1.5000   53.8790 H       1  ZINC000281092425    0.0800
     35 H35        -8.3538    0.0918   54.7046 H       1  ZINC000281092425    0.0800
     36 H36        -8.3625    0.7726   51.7132 H       1  ZINC000281092425    0.0600
     37 H37        -6.9794    0.2706   52.7318 H       1  ZINC000281092425    0.0900
     38 H38        -9.4574   -2.4572   53.4724 H       1  ZINC000281092425    0.0800
     39 H39       -10.2678   -1.9123   51.9786 H       1  ZINC000281092425    0.0700
     40 H40       -10.3707   -1.5729   58.5395 H       1  ZINC000281092425    0.1500
     41 H41       -10.8989    0.0514   59.9217 H       1  ZINC000281092425    0.1900
@<TRIPOS>BOND
     1     1     2    2
     2     2     3    2
     3     2     4    1
     4     4    21   ar
     5     4     5   ar
     6     5     6   ar
     7     5    26    1
     8     6     7   ar
     9     6    27    1
    10     7     8    1
    11     7    20   ar
    12     8     9    1
    13     8    28    1
    14     9    10    1
    15     9    29    1
    16     9    30    1
    17    10    11    1
    18    10    12    1
    19    10    14    1
    20    12    13    1
    21    12    31    1
    22    12    32    1
    23    13    33    1
    24    14    15    1
    25    14    19    1
    26    14    16    1
    27    16    17    1
    28    16    34    1
    29    16    35    1
    30    17    18    1
    31    17    36    1
    32    17    37    1
    33    18    19    1
    34    19    38    1
    35    19    39    1
    36    20    21   ar
    37    20    40    1
    38    21    22    1
    39    22    23    1
    40    23    24    1
    41    23    25    1
    42    23    41    1
@<TRIPOS>SUBSTRUCTURE
     1 ZINC000281092425        1 TEMP              0 ****  ****    0 ROOT


##########                                Name:    ZINC000603906271
##########                DOCK_Rotatable_Bonds:                   8
##########                         Heavy_Atoms:                  29
##########                    Molecular_Weight:             391.473
##########                DOCK_Rotatable_Bonds:                   8
##########                       Formal_Charge:           0.0499998
##########                     HBond_Acceptors:                   7
##########                        HBond_Donors:                   3
##########                         Heavy_Atoms:                  29
##########                          Grid_Score:          -29.579554
##########                     Grid_vdw_energy:          -29.509584
##########                      Grid_es_energy:           -0.069970
##########           Internal_energy_repulsive:           32.536514

@<TRIPOS>MOLECULE
ZINC000603906271
 54 56 1 0 0
SMALL
USER_CHARGES


@<TRIPOS>ATOM
      1 C1        -10.6281   -2.5619   59.8800 C.3     1  ZINC000603906271   -0.1600
      2 C2        -10.8876   -1.1383   59.3833 C.3     1  ZINC000603906271    0.1300
      3 H3        -11.7284   -1.1431   58.6896 H       1  ZINC000603906271    0.1200
      4 N4        -11.2002   -0.2728   60.5233 N.am    1  ZINC000603906271   -0.7100
      5 C5        -10.2422    0.0314   61.4211 C.2     1  ZINC000603906271    0.5700
      6 O6         -9.1192   -0.4136   61.2859 O.2     1  ZINC000603906271   -0.5300
      7 C7        -10.5572    0.9063   62.5706 C.ar    1  ZINC000603906271   -0.1400
      8 C8         -9.5869    1.1669   63.5395 C.ar    1  ZINC000603906271   -0.0800
      9 C9         -9.8870    1.9844   64.6094 C.ar    1  ZINC000603906271   -0.1200
     10 C10       -11.1469    2.5451   64.7235 C.ar    1  ZINC000603906271   -0.0400
     11 C11       -11.4678    3.4367   65.8952 C.3     1  ZINC000603906271   -0.0400
     12 C12       -10.1963    4.1532   66.3542 C.3     1  ZINC000603906271   -0.1400
     13 C13       -12.5137    4.4720   65.4767 C.3     1  ZINC000603906271   -0.1500
     14 C14       -12.0194    2.5903   67.0442 C.3     1  ZINC000603906271   -0.1400
     15 C15       -12.1131    2.2910   63.7663 C.ar    1  ZINC000603906271   -0.1300
     16 C16       -11.8242    1.4796   62.6887 C.ar    1  ZINC000603906271   -0.0500
     17 C17        -9.6595   -0.6197   58.6807 C.2     1  ZINC000603906271    0.5100
     18 O18        -8.6956   -1.3409   58.5326 O.2     1  ZINC000603906271   -0.5100
     19 N19        -9.6321    0.6454   58.2169 N.am    1  ZINC000603906271   -0.6700
     20 C20        -8.4917    1.1270   57.5645 C.ar    1  ZINC000603906271    0.1300
     21 C21        -7.4658    1.7100   58.2978 C.ar    1  ZINC000603906271   -0.1200
     22 C22        -6.3378    2.1867   57.6568 C.ar    1  ZINC000603906271   -0.1000
     23 C23        -6.2245    2.0867   56.2847 C.ar    1  ZINC000603906271   -0.0900
     24 C24        -7.2491    1.5037   55.5410 C.ar    1  ZINC000603906271    0.0000
     25 C25        -7.1291    1.3958   54.0657 C.2     1  ZINC000603906271    0.2700
     26 N26        -7.7459    0.5149   53.3089 N.2     1  ZINC000603906271   -0.3000
     27 N27        -7.3488    0.7704   51.9863 N.pl3   1  ZINC000603906271   -0.4800
     28 C28        -6.4996    1.8124   52.0364 C.2     1  ZINC000603906271    0.2700
     29 N29        -6.3787    2.1834   53.2836 N.2     1  ZINC000603906271   -0.5300
     30 C30        -8.3825    1.0172   56.1862 C.ar    1  ZINC000603906271   -0.0800
     31 H31        -9.7874   -2.5572   60.5737 H       1  ZINC000603906271    0.0700
     32 H32       -11.5165   -2.9371   60.3882 H       1  ZINC000603906271    0.0800
     33 H33       -10.3956   -3.2059   59.0318 H       1  ZINC000603906271    0.0700
     34 H34       -12.0967    0.0813   60.6319 H       1  ZINC000603906271    0.4100
     35 H35        -8.6033    0.7294   63.4520 H       1  ZINC000603906271    0.1300
     36 H36        -9.1372    2.1870   65.3599 H       1  ZINC000603906271    0.1300
     37 H37        -9.8034    4.7562   65.5357 H       1  ZINC000603906271    0.0600
     38 H38       -10.4285    4.7981   67.2018 H       1  ZINC000603906271    0.0600
     39 H39        -9.4512    3.4156   66.6524 H       1  ZINC000603906271    0.0600
     40 H40       -13.4197    3.9616   65.1497 H       1  ZINC000603906271    0.0600
     41 H41       -12.7459    5.1170   66.3242 H       1  ZINC000603906271    0.0600
     42 H42       -12.1208    5.0751   64.6582 H       1  ZINC000603906271    0.0600
     43 H43       -11.2742    1.8527   67.3423 H       1  ZINC000603906271    0.0600
     44 H44       -12.2515    3.2352   67.8917 H       1  ZINC000603906271    0.0600
     45 H45       -12.9253    2.0798   66.7172 H       1  ZINC000603906271    0.0600
     46 H46       -13.0944    2.7320   63.8610 H       1  ZINC000603906271    0.1400
     47 H47       -12.5792    1.2824   61.9419 H       1  ZINC000603906271    0.1400
     48 H48       -10.4030    1.2221   58.3354 H       1  ZINC000603906271    0.4200
     49 H49        -7.5500    1.7912   59.3714 H       1  ZINC000603906271    0.1300
     50 H50        -5.5429    2.6392   58.2311 H       1  ZINC000603906271    0.1400
     51 H51        -5.3419    2.4607   55.7871 H       1  ZINC000603906271    0.1400
     52 H52        -7.6313    0.2896   51.1925 H       1  ZINC000603906271    0.4400
     53 H53        -6.0059    2.2674   51.1904 H       1  ZINC000603906271    0.2300
     54 H54        -9.1790    0.5646   55.6143 H       1  ZINC000603906271    0.1500
@<TRIPOS>BOND
     1     1     2    1
     2     1    31    1
     3     1    32    1
     4     1    33    1
     5     2     3    1
     6     2     4    1
     7     2    17    1
     8     4     5   am
     9     4    34    1
    10     5     6    2
    11     5     7    1
    12     7    16   ar
    13     7     8   ar
    14     8     9   ar
    15     8    35    1
    16     9    10   ar
    17     9    36    1
    18    10    11    1
    19    10    15   ar
    20    11    12    1
    21    11    13    1
    22    11    14    1
    23    12    37    1
    24    12    38    1
    25    12    39    1
    26    13    40    1
    27    13    41    1
    28    13    42    1
    29    14    43    1
    30    14    44    1
    31    14    45    1
    32    15    16   ar
    33    15    46    1
    34    16    47    1
    35    17    18    2
    36    17    19   am
    37    19    20    1
    38    19    48    1
    39    20    30   ar
    40    20    21   ar
    41    21    22   ar
    42    21    49    1
    43    22    23   ar
    44    22    50    1
    45    23    24   ar
    46    23    51    1
    47    24    25    1
    48    24    30   ar
    49    25    29    1
    50    25    26    2
    51    26    27    1
    52    27    28    1
    53    27    52    1
    54    28    29    2
    55    28    53    1
    56    30    54    1
@<TRIPOS>SUBSTRUCTURE
     1 ZINC000603906271        1 TEMP              0 ****  ****    0 ROOT


##########                                Name:    ZINC000269287897
##########                DOCK_Rotatable_Bonds:                   8
##########                         Heavy_Atoms:                  23
##########                    Molecular_Weight:             385.301
##########                DOCK_Rotatable_Bonds:                   8
##########                       Formal_Charge:           0.0300002
##########                     HBond_Acceptors:                   5
##########                        HBond_Donors:                   1
##########                         Heavy_Atoms:                  23
##########                          Grid_Score:          -29.537956
##########                     Grid_vdw_energy:          -29.306385
##########                      Grid_es_energy:           -0.231571
##########           Internal_energy_repulsive:            9.429056

@<TRIPOS>MOLECULE
ZINC000269287897
 48 49 1 0 0
SMALL
USER_CHARGES


@<TRIPOS>ATOM
      1 C1         -7.8944   -0.3719   66.7281 C.3     1  ZINC000269287897    0.0300
      2 O2         -8.3868    0.1191   65.4797 O.3     1  ZINC000269287897   -0.3800
      3 C3         -9.1392    1.3291   65.5871 C.3     1  ZINC000269287897    0.0600
      4 C4         -9.5608    1.7931   64.1914 C.3     1  ZINC000269287897    0.0600
      5 O5        -10.4684    0.8441   63.6279 O.3     1  ZINC000269287897   -0.3800
      6 C6        -10.9676    1.2110   62.3402 C.3     1  ZINC000269287897    0.0700
      7 C7         -9.8382    1.1247   61.3117 C.3     1  ZINC000269287897   -0.1000
      8 H8         -9.0360    1.8210   61.5561 H       1  ZINC000269287897    0.1000
      9 C9         -9.2999   -0.3260   61.1972 C.3     1  ZINC000269287897   -0.1200
     10 C10        -8.7420   -0.3752   59.7592 C.3     1  ZINC000269287897    0.1000
     11 N11        -9.4118    0.6870   58.9946 N.am    1  ZINC000269287897   -0.6300
     12 C12        -9.1861    0.9843   57.6995 C.2     1  ZINC000269287897    0.7300
     13 O13        -9.8004    1.8888   57.1674 O.2     1  ZINC000269287897   -0.5600
     14 N14        -8.2796    0.2791   56.9943 N.am    1  ZINC000269287897   -0.6900
     15 C15        -8.0452    0.5879   55.6492 C.ar    1  ZINC000269287897    0.1800
     16 C16        -8.7661   -0.0547   54.6521 C.ar    1  ZINC000269287897   -0.0600
     17 C17        -9.8027   -1.0861   55.0163 C.3     1  ZINC000269287897   -0.1000
     18 C18        -8.5329    0.2526   53.3255 C.ar    1  ZINC000269287897   -0.0900
     19 C19        -7.5826    1.1991   52.9900 C.ar    1  ZINC000269287897   -0.0800
     20 C20        -7.3311    1.5314   51.5418 C.3     1  ZINC000269287897   -0.1100
     21 C21        -6.8625    1.8419   53.9806 C.ar    1  ZINC000269287897   -0.0900
     22 C22        -7.0943    1.5427   55.3095 C.ar    1  ZINC000269287897   -0.1000
     23 Br23       -6.1099    2.4222   56.6635 Br      1  ZINC000269287897   -0.0500
     24 C24       -10.3720    1.3733   59.8789 C.3     1  ZINC000269287897    0.1400
     25 H25        -7.2407    0.3743   67.1797 H       1  ZINC000269287897    0.0400
     26 H26        -8.7324   -0.5725   67.3957 H       1  ZINC000269287897    0.0400
     27 H27        -7.3345   -1.2921   66.5612 H       1  ZINC000269287897    0.0900
     28 H28       -10.0267    1.1524   66.1947 H       1  ZINC000269287897    0.0600
     29 H29        -8.5254    2.0983   66.0557 H       1  ZINC000269287897    0.0600
     30 H30       -10.0495    2.7647   64.2638 H       1  ZINC000269287897    0.0700
     31 H31        -8.6800    1.8760   63.5547 H       1  ZINC000269287897    0.0600
     32 H32       -11.7713    0.5320   62.0551 H       1  ZINC000269287897    0.0600
     33 H33       -11.3495    2.2314   62.3758 H       1  ZINC000269287897    0.0500
     34 H34        -8.5074   -0.5017   61.9246 H       1  ZINC000269287897    0.0900
     35 H35       -10.1070   -1.0479   61.3227 H       1  ZINC000269287897    0.0800
     36 H36        -7.6662   -0.2002   59.7727 H       1  ZINC000269287897    0.0700
     37 H37        -8.9562   -1.3456   59.3114 H       1  ZINC000269287897    0.0700
     38 H38        -7.7896   -0.4425   57.4188 H       1  ZINC000269287897    0.4100
     39 H39       -10.7908   -0.6260   55.0108 H       1  ZINC000269287897    0.0900
     40 H40        -9.7765   -1.8994   54.2911 H       1  ZINC000269287897    0.0600
     41 H41        -9.5905   -1.4790   56.0107 H       1  ZINC000269287897    0.0600
     42 H42        -9.0934   -0.2474   52.5495 H       1  ZINC000269287897    0.1300
     43 H43        -7.9869    2.3469   51.2370 H       1  ZINC000269287897    0.0700
     44 H44        -6.2917    1.8340   51.4137 H       1  ZINC000269287897    0.0700
     45 H45        -7.5325    0.6540   50.9274 H       1  ZINC000269287897    0.0700
     46 H46        -6.1208    2.5807   53.7154 H       1  ZINC000269287897    0.1400
     47 H47       -11.3669    0.9428   59.7653 H       1  ZINC000269287897    0.0700
     48 H48       -10.3925    2.4410   59.6605 H       1  ZINC000269287897    0.0900
@<TRIPOS>BOND
     1     1     2    1
     2     1    25    1
     3     1    26    1
     4     1    27    1
     5     2     3    1
     6     3     4    1
     7     3    28    1
     8     3    29    1
     9     4     5    1
    10     4    30    1
    11     4    31    1
    12     5     6    1
    13     6     7    1
    14     6    32    1
    15     6    33    1
    16     7     8    1
    17     7    24    1
    18     7     9    1
    19     9    10    1
    20     9    34    1
    21     9    35    1
    22    10    11    1
    23    10    36    1
    24    10    37    1
    25    11    12   am
    26    11    24    1
    27    12    13    2
    28    12    14   am
    29    14    15    1
    30    14    38    1
    31    15    22   ar
    32    15    16   ar
    33    16    17    1
    34    16    18   ar
    35    17    39    1
    36    17    40    1
    37    17    41    1
    38    18    19   ar
    39    18    42    1
    40    19    20    1
    41    19    21   ar
    42    20    43    1
    43    20    44    1
    44    20    45    1
    45    21    22   ar
    46    21    46    1
    47    22    23    1
    48    24    47    1
    49    24    48    1
@<TRIPOS>SUBSTRUCTURE
     1 ZINC000269287897        1 TEMP              0 ****  ****    0 ROOT


##########                                Name:    ZINC000892389374
##########                DOCK_Rotatable_Bonds:                   6
##########                         Heavy_Atoms:                  25
##########                    Molecular_Weight:             371.383
##########                DOCK_Rotatable_Bonds:                   6
##########                       Formal_Charge:          -0.0199998
##########                     HBond_Acceptors:                   9
##########                        HBond_Donors:                   1
##########                         Heavy_Atoms:                  25
##########                          Grid_Score:          -29.535471
##########                     Grid_vdw_energy:          -29.213121
##########                      Grid_es_energy:           -0.322349
##########           Internal_energy_repulsive:            6.828100

@<TRIPOS>MOLECULE
ZINC000892389374
 41 43 1 0 0
SMALL
USER_CHARGES


@<TRIPOS>ATOM
      1 C1        -13.8657   -2.1778   57.2264 C.3     1  ZINC000892389374   -0.1000
      2 C2        -12.6838   -1.6391   56.4622 C.ar    1  ZINC000892389374   -0.1800
      3 C3        -12.7764   -0.4214   55.8166 C.ar    1  ZINC000892389374   -0.0400
      4 C4        -11.6948    0.0761   55.1152 C.ar    1  ZINC000892389374   -0.2100
      5 C5        -10.5106   -0.6474   55.0566 C.ar    1  ZINC000892389374    0.2200
      6 N6         -9.4157   -0.1426   54.3459 N.am    1  ZINC000892389374   -0.5700
      7 C7         -9.2506   -0.1862   52.8849 C.3     1  ZINC000892389374    0.0600
      8 C8         -7.8904    0.4981   52.6487 C.3     1  ZINC000892389374    0.0400
      9 O9         -7.4364    0.8519   53.9872 O.3     1  ZINC000892389374   -0.3200
     10 C10        -8.3496    0.4644   54.8849 C.2     1  ZINC000892389374    0.6400
     11 O11        -8.2201    0.6393   56.0804 O.2     1  ZINC000892389374   -0.5000
     12 C12       -10.4139   -1.8709   55.7039 C.ar    1  ZINC000892389374   -0.2300
     13 C13       -11.4998   -2.3654   56.4123 C.ar    1  ZINC000892389374    0.2400
     14 N14       -11.4068   -3.5965   57.0652 N.pl3   1  ZINC000892389374   -0.7400
     15 C15       -10.2422   -3.8956   57.9022 C.3     1  ZINC000892389374    0.2000
     16 C16       -10.1266   -2.8601   58.9908 C.2     1  ZINC000892389374   -0.2400
     17 C17       -11.1054   -2.4719   59.8139 C.2     1  ZINC000892389374    0.0600
     18 N18       -10.7530   -1.5475   60.6845 N.2     1  ZINC000892389374   -0.4500
     19 C19        -9.5314   -1.1343   60.6416 C.2     1  ZINC000892389374    0.0200
     20 C20        -8.9429   -0.0867   61.5512 C.3     1  ZINC000892389374   -0.0900
     21 C21        -9.1696    1.3000   60.9458 C.3     1  ZINC000892389374    0.4600
     22 F22        -8.5368    1.3742   59.7003 F       1  ZINC000892389374   -0.1800
     23 F23       -10.5417    1.5204   60.7857 F       1  ZINC000892389374   -0.1800
     24 F24        -8.6372    2.2735   61.7979 F       1  ZINC000892389374   -0.1700
     25 S25        -8.6753   -1.9525   59.4084 S.3     1  ZINC000892389374    0.1900
     26 H26       -13.8211   -1.8285   58.2580 H       1  ZINC000892389374    0.0700
     27 H27       -14.7882   -1.8269   56.7637 H       1  ZINC000892389374    0.0700
     28 H28       -13.8427   -3.2674   57.2104 H       1  ZINC000892389374    0.0600
     29 H29       -13.6963    0.1428   55.8599 H       1  ZINC000892389374    0.1300
     30 H30       -11.7704    1.0285   54.6115 H       1  ZINC000892389374    0.1200
     31 H31        -9.2266   -1.2175   52.5330 H       1  ZINC000892389374    0.1000
     32 H32       -10.0491    0.3689   52.3927 H       1  ZINC000892389374    0.1000
     33 H33        -7.1913   -0.1933   52.1784 H       1  ZINC000892389374    0.1100
     34 H34        -8.0136    1.3927   52.0382 H       1  ZINC000892389374    0.1100
     35 H35        -9.4942   -2.4354   55.6595 H       1  ZINC000892389374    0.1600
     36 H36       -12.1133   -4.2535   56.9646 H       1  ZINC000892389374    0.4000
     37 H37       -10.3607   -4.8822   58.3502 H       1  ZINC000892389374    0.0900
     38 H38        -9.3409   -3.8807   57.2894 H       1  ZINC000892389374    0.0800
     39 H39       -12.1034   -2.8822   59.7692 H       1  ZINC000892389374    0.1800
     40 H40        -9.4254   -0.1404   62.5271 H       1  ZINC000892389374    0.1300
     41 H41        -7.8733   -0.2633   61.6646 H       1  ZINC000892389374    0.1400
@<TRIPOS>BOND
     1     1     2    1
     2     1    26    1
     3     1    27    1
     4     1    28    1
     5     2    13   ar
     6     2     3   ar
     7     3     4   ar
     8     3    29    1
     9     4     5   ar
    10     4    30    1
    11     5     6    1
    12     5    12   ar
    13     6    10   am
    14     6     7    1
    15     7     8    1
    16     7    31    1
    17     7    32    1
    18     8     9    1
    19     8    33    1
    20     8    34    1
    21     9    10    1
    22    10    11    2
    23    12    13   ar
    24    12    35    1
    25    13    14    1
    26    14    15    1
    27    14    36    1
    28    15    16    1
    29    15    37    1
    30    15    38    1
    31    16    25    1
    32    16    17    2
    33    17    18    1
    34    17    39    1
    35    18    19    2
    36    19    20    1
    37    19    25    1
    38    20    21    1
    39    20    40    1
    40    20    41    1
    41    21    22    1
    42    21    23    1
    43    21    24    1
@<TRIPOS>SUBSTRUCTURE
     1 ZINC000892389374        1 TEMP              0 ****  ****    0 ROOT


##########                                Name:    ZINC001289445798
##########                DOCK_Rotatable_Bonds:                  10
##########                         Heavy_Atoms:                  25
##########                    Molecular_Weight:             352.434
##########                DOCK_Rotatable_Bonds:                  10
##########                       Formal_Charge:          0.00999932
##########                     HBond_Acceptors:                   8
##########                        HBond_Donors:                   2
##########                         Heavy_Atoms:                  25
##########                          Grid_Score:          -29.517578
##########                     Grid_vdw_energy:          -27.358561
##########                      Grid_es_energy:           -2.159018
##########           Internal_energy_repulsive:           26.221443

@<TRIPOS>MOLECULE
ZINC001289445798
 53 54 1 0 0
SMALL
USER_CHARGES


@<TRIPOS>ATOM
      1 C1         -7.1548    1.4410   51.5845 C.3     1  ZINC001289445798   -0.1500
      2 C2         -6.9782    0.3767   52.6693 C.3     1  ZINC001289445798    0.0600
      3 O3         -8.2171   -0.3056   52.8734 O.3     1  ZINC001289445798   -0.3700
      4 C4         -9.0914    0.3419   53.7999 C.3     1  ZINC001289445798    0.1100
      5 H5         -8.6143    1.2457   54.1789 H       1  ZINC001289445798    0.0700
      6 C6         -9.3906   -0.6037   54.9649 C.3     1  ZINC001289445798   -0.1400
      7 C7         -8.8981    0.0106   56.2498 C.2     1  ZINC001289445798    0.5400
      8 O8         -8.0525    0.8796   56.2214 O.2     1  ZINC001289445798   -0.5200
      9 N9         -9.3970   -0.4057   57.4305 N.am    1  ZINC001289445798   -0.6200
     10 C10        -9.0135    0.1103   58.7527 C.3     1  ZINC001289445798    0.1000
     11 C11        -9.8612   -0.6404   59.8011 C.3     1  ZINC001289445798    0.1400
     12 H12        -9.3071   -1.4837   60.2131 H       1  ZINC001289445798    0.1200
     13 N13       -10.2888    0.2675   60.8683 N.am    1  ZINC001289445798   -0.7200
     14 C14        -9.5656    0.3633   62.0016 C.2     1  ZINC001289445798    0.6000
     15 O15        -8.5588   -0.3052   62.1389 O.2     1  ZINC001289445798   -0.5100
     16 C16        -9.9941    1.2766   63.0731 C.2     1  ZINC001289445798   -0.0500
     17 C17       -11.2950    1.5742   63.4401 C.2     1  ZINC001289445798   -0.1400
     18 C18       -11.1831    2.4815   64.4961 C.2     1  ZINC001289445798    0.0000
     19 N19        -9.9095    2.6867   64.7158 N.2     1  ZINC001289445798   -0.2700
     20 N20        -9.1876    1.9960   63.9085 N.pl3   1  ZINC001289445798   -0.3800
     21 C21       -11.0782   -1.1342   58.9749 C.3     1  ZINC001289445798    0.0700
     22 H22       -11.8262   -0.3480   58.8731 H       1  ZINC001289445798    0.0900
     23 O23       -11.6492   -2.3084   59.5559 O.3     1  ZINC001289445798   -0.3700
     24 C24       -13.0509   -2.4518   59.3180 C.3     1  ZINC001289445798    0.0300
     25 C25       -10.4227   -1.4495   57.6097 C.3     1  ZINC001289445798    0.0800
     26 C26       -10.3979    0.7121   53.0950 C.3     1  ZINC001289445798   -0.1100
     27 C27       -11.0826   -0.5593   52.5893 C.3     1  ZINC001289445798   -0.1500
     28 C28       -11.3221    1.4320   54.0792 C.3     1  ZINC001289445798   -0.1500
     29 H29        -7.9159    2.1558   51.8974 H       1  ZINC001289445798    0.0600
     30 H30        -6.2098    1.9614   51.4287 H       1  ZINC001289445798    0.0700
     31 H31        -7.4645    0.9642   50.6546 H       1  ZINC001289445798    0.0600
     32 H32        -6.2171   -0.3382   52.3565 H       1  ZINC001289445798    0.0500
     33 H33        -6.6684    0.8536   53.5992 H       1  ZINC001289445798    0.0500
     34 H34       -10.4659   -0.7703   55.0306 H       1  ZINC001289445798    0.1100
     35 H35        -8.8849   -1.5551   54.7997 H       1  ZINC001289445798    0.1000
     36 H36        -7.9542   -0.0759   58.9302 H       1  ZINC001289445798    0.0800
     37 H37        -9.2182    1.1795   58.8070 H       1  ZINC001289445798    0.0800
     38 H38       -11.0924    0.7998   60.7595 H       1  ZINC001289445798    0.4000
     39 H39       -12.2036    1.1872   63.0028 H       1  ZINC001289445798    0.1700
     40 H40       -12.0023    2.9338   65.0353 H       1  ZINC001289445798    0.1900
     41 H41        -8.2178    1.9912   63.8904 H       1  ZINC001289445798    0.4400
     42 H42       -13.4079   -3.3667   59.7910 H       1  ZINC001289445798    0.0900
     43 H43       -13.5800   -1.5959   59.7371 H       1  ZINC001289445798    0.0400
     44 H44       -13.2341   -2.5024   58.2448 H       1  ZINC001289445798    0.0500
     45 H45       -11.1639   -1.3987   56.8123 H       1  ZINC001289445798    0.0900
     46 H46        -9.9548   -2.4337   57.6319 H       1  ZINC001289445798    0.0900
     47 H47       -10.1826    1.3688   52.2521 H       1  ZINC001289445798    0.0800
     48 H48       -11.2979   -1.2159   53.4322 H       1  ZINC001289445798    0.0600
     49 H49       -12.0135   -0.2955   52.0872 H       1  ZINC001289445798    0.0600
     50 H50       -10.4242   -1.0722   51.8881 H       1  ZINC001289445798    0.0600
     51 H51       -10.8773    2.3854   54.3643 H       1  ZINC001289445798    0.0600
     52 H52       -12.2886    1.6086   53.6073 H       1  ZINC001289445798    0.0600
     53 H53       -11.4588    0.8149   54.9672 H       1  ZINC001289445798    0.0500
@<TRIPOS>BOND
     1     1     2    1
     2     1    29    1
     3     1    30    1
     4     1    31    1
     5     2     3    1
     6     2    32    1
     7     2    33    1
     8     3     4    1
     9     4     5    1
    10     4     6    1
    11     4    26    1
    12     6     7    1
    13     6    34    1
    14     6    35    1
    15     7     8    2
    16     7     9   am
    17     9    25    1
    18     9    10    1
    19    10    11    1
    20    10    36    1
    21    10    37    1
    22    11    12    1
    23    11    13    1
    24    11    21    1
    25    13    14   am
    26    13    38    1
    27    14    15    2
    28    14    16    1
    29    16    20    1
    30    16    17    2
    31    17    18    1
    32    17    39    1
    33    18    19    2
    34    18    40    1
    35    19    20    1
    36    20    41    1
    37    21    22    1
    38    21    23    1
    39    21    25    1
    40    23    24    1
    41    24    42    1
    42    24    43    1
    43    24    44    1
    44    25    45    1
    45    25    46    1
    46    26    27    1
    47    26    28    1
    48    26    47    1
    49    27    48    1
    50    27    49    1
    51    27    50    1
    52    28    51    1
    53    28    52    1
    54    28    53    1
@<TRIPOS>SUBSTRUCTURE
     1 ZINC001289445798        1 TEMP              0 ****  ****    0 ROOT


##########                                Name:    ZINC000537799672
##########                DOCK_Rotatable_Bonds:                   9
##########                         Heavy_Atoms:                  29
##########                    Molecular_Weight:             401.478
##########                DOCK_Rotatable_Bonds:                   9
##########                       Formal_Charge:        -4.47035e-07
##########                     HBond_Acceptors:                   6
##########                        HBond_Donors:                   1
##########                         Heavy_Atoms:                  29
##########                          Grid_Score:          -29.514633
##########                     Grid_vdw_energy:          -28.408787
##########                      Grid_es_energy:           -1.105845
##########           Internal_energy_repulsive:           18.540621

@<TRIPOS>MOLECULE
ZINC000537799672
 57 59 1 0 0
SMALL
USER_CHARGES


@<TRIPOS>ATOM
      1 C1         -8.4046   -0.1653   62.2380 C.3     1  ZINC000537799672    0.0300
      2 O2         -8.7362    1.2015   61.9852 O.3     1  ZINC000537799672   -0.3800
      3 C3         -9.5990    1.3922   60.8622 C.3     1  ZINC000537799672    0.1200
      4 H4        -10.0192    0.4330   60.5597 H       1  ZINC000537799672    0.0900
      5 C5        -10.7144    2.3327   61.2396 C.ar    1  ZINC000537799672   -0.1300
      6 C6        -11.9528    2.2126   60.6369 C.ar    1  ZINC000537799672   -0.0600
      7 C7        -12.9764    3.0744   60.9822 C.ar    1  ZINC000537799672   -0.1500
      8 C8        -12.7615    4.0583   61.9324 C.ar    1  ZINC000537799672    0.1000
      9 F9        -13.7616    4.9011   62.2710 F       1  ZINC000537799672   -0.1400
     10 C10       -11.5209    4.1773   62.5357 C.ar    1  ZINC000537799672   -0.1500
     11 C11       -10.5002    3.3113   62.1924 C.ar    1  ZINC000537799672   -0.0800
     12 C12        -8.8007    1.9882   59.7009 C.3     1  ZINC000537799672    0.1600
     13 H13        -7.7386    1.7974   59.8544 H       1  ZINC000537799672    0.1000
     14 C14        -9.0437    3.4974   59.6365 C.3     1  ZINC000537799672   -0.1600
     15 N15        -9.2313    1.3702   58.4443 N.am    1  ZINC000537799672   -0.7100
     16 C16        -8.5263    0.3485   57.9196 C.2     1  ZINC000537799672    0.5600
     17 O17        -7.5340   -0.0613   58.4896 O.2     1  ZINC000537799672   -0.5400
     18 C18        -8.9599   -0.2741   56.6506 C.ar    1  ZINC000537799672   -0.1400
     19 C19        -8.4770    0.2075   55.4329 C.ar    1  ZINC000537799672   -0.0800
     20 C20        -8.8853   -0.3782   54.2522 C.ar    1  ZINC000537799672   -0.1300
     21 C21        -9.7714   -1.4403   54.2736 C.ar    1  ZINC000537799672   -0.0900
     22 C22       -10.2542   -1.9224   55.4775 C.ar    1  ZINC000537799672   -0.1100
     23 C23        -9.8494   -1.3497   56.6654 C.ar    1  ZINC000537799672   -0.0300
     24 C24       -10.3758   -1.8763   57.9757 C.3     1  ZINC000537799672    0.1100
     25 O25       -11.6383   -1.2701   58.2598 O.3     1  ZINC000537799672   -0.3800
     26 C26       -12.5600   -2.1334   58.9288 C.3     1  ZINC000537799672    0.0900
     27 C27       -13.1870   -1.3934   60.1144 C.3     1  ZINC000537799672   -0.1800
     28 C28       -14.2297   -2.2977   60.7767 C.3     1  ZINC000537799672    0.0600
     29 O29       -15.2139   -2.6741   59.8114 O.3     1  ZINC000537799672   -0.3800
     30 C30       -14.6925   -3.4105   58.7032 C.3     1  ZINC000537799672    0.0600
     31 C31       -13.6684   -2.5508   57.9575 C.3     1  ZINC000537799672   -0.1500
     32 H32        -7.9670   -0.6046   61.3416 H       1  ZINC000537799672    0.0500
     33 H33        -7.6873   -0.2196   63.0568 H       1  ZINC000537799672    0.0900
     34 H34        -9.3068   -0.7140   62.5082 H       1  ZINC000537799672    0.0400
     35 H35       -12.1202    1.4451   59.8957 H       1  ZINC000537799672    0.1300
     36 H36       -13.9436    2.9808   60.5107 H       1  ZINC000537799672    0.1400
     37 H37       -11.3521    4.9446   63.2769 H       1  ZINC000537799672    0.1400
     38 H38        -9.5326    3.4037   62.6630 H       1  ZINC000537799672    0.1300
     39 H39        -8.8120    3.9443   60.6033 H       1  ZINC000537799672    0.0700
     40 H40        -8.4039    3.9361   58.8708 H       1  ZINC000537799672    0.0600
     41 H41       -10.0883    3.6870   59.3896 H       1  ZINC000537799672    0.0700
     42 H42       -10.0239    1.6964   57.9901 H       1  ZINC000537799672    0.4000
     43 H43        -7.7858    1.0371   55.4148 H       1  ZINC000537799672    0.1300
     44 H44        -8.5124   -0.0065   53.3092 H       1  ZINC000537799672    0.1300
     45 H45       -10.0880   -1.8951   53.3466 H       1  ZINC000537799672    0.1300
     46 H46       -10.9461   -2.7516   55.4874 H       1  ZINC000537799672    0.1400
     47 H47       -10.4984   -2.9574   57.9098 H       1  ZINC000537799672    0.0800
     48 H48        -9.6709   -1.6384   58.7723 H       1  ZINC000537799672    0.0800
     49 H49       -12.0357   -3.0196   59.2864 H       1  ZINC000537799672    0.0600
     50 H50       -12.4116   -1.1411   60.8376 H       1  ZINC000537799672    0.0800
     51 H51       -13.6678   -0.4811   59.7613 H       1  ZINC000537799672    0.0800
     52 H52       -13.7414   -3.1913   61.1654 H       1  ZINC000537799672    0.0500
     53 H53       -14.7096   -1.7606   61.5948 H       1  ZINC000537799672    0.1000
     54 H54       -14.2102   -4.3186   59.0648 H       1  ZINC000537799672    0.0500
     55 H55       -15.5059   -3.6749   58.0275 H       1  ZINC000537799672    0.1000
     56 H56       -14.1590   -1.6619   57.5609 H       1  ZINC000537799672    0.0800
     57 H57       -13.2373   -3.1262   57.1383 H       1  ZINC000537799672    0.0800
@<TRIPOS>BOND
     1     1     2    1
     2     1    32    1
     3     1    33    1
     4     1    34    1
     5     2     3    1
     6     3     4    1
     7     3     5    1
     8     3    12    1
     9     5    11   ar
    10     5     6   ar
    11     6     7   ar
    12     6    35    1
    13     7     8   ar
    14     7    36    1
    15     8     9    1
    16     8    10   ar
    17    10    11   ar
    18    10    37    1
    19    11    38    1
    20    12    13    1
    21    12    14    1
    22    12    15    1
    23    14    39    1
    24    14    40    1
    25    14    41    1
    26    15    16   am
    27    15    42    1
    28    16    17    2
    29    16    18    1
    30    18    23   ar
    31    18    19   ar
    32    19    20   ar
    33    19    43    1
    34    20    21   ar
    35    20    44    1
    36    21    22   ar
    37    21    45    1
    38    22    23   ar
    39    22    46    1
    40    23    24    1
    41    24    25    1
    42    24    47    1
    43    24    48    1
    44    25    26    1
    45    26    31    1
    46    26    27    1
    47    26    49    1
    48    27    28    1
    49    27    50    1
    50    27    51    1
    51    28    29    1
    52    28    52    1
    53    28    53    1
    54    29    30    1
    55    30    31    1
    56    30    54    1
    57    30    55    1
    58    31    56    1
    59    31    57    1
@<TRIPOS>SUBSTRUCTURE
     1 ZINC000537799672        1 TEMP              0 ****  ****    0 ROOT


##########                                Name:    ZINC000185180600
##########                DOCK_Rotatable_Bonds:                   7
##########                         Heavy_Atoms:                  26
##########                    Molecular_Weight:             395.953
##########                DOCK_Rotatable_Bonds:                   7
##########                       Formal_Charge:          0.00999977
##########                     HBond_Acceptors:                   7
##########                        HBond_Donors:                   0
##########                         Heavy_Atoms:                  26
##########                          Grid_Score:          -29.512566
##########                     Grid_vdw_energy:          -30.150585
##########                      Grid_es_energy:            0.638020
##########           Internal_energy_repulsive:           32.733944

@<TRIPOS>MOLECULE
ZINC000185180600
 52 53 1 0 0
SMALL
USER_CHARGES


@<TRIPOS>ATOM
      1 C1        -13.9843   -0.9748   57.0177 C.3     1  ZINC000185180600   -0.1500
      2 C2        -13.1152   -1.8512   57.9218 C.3     1  ZINC000185180600   -0.0900
      3 C3        -13.2610   -3.3161   57.5051 C.3     1  ZINC000185180600   -0.1500
      4 C4        -11.6513   -1.4265   57.7893 C.3     1  ZINC000185180600   -0.1300
      5 C5        -11.1382   -1.7929   56.3953 C.3     1  ZINC000185180600    0.1300
      6 H6        -11.9844   -1.9738   55.7326 H       1  ZINC000185180600    0.1100
      7 C7        -10.2802   -3.0566   56.4835 C.3     1  ZINC000185180600   -0.1600
      8 N8        -10.3310   -0.6905   55.8667 N.am    1  ZINC000185180600   -0.6000
      9 C9        -10.5719   -0.1909   54.5107 C.3     1  ZINC000185180600    0.0700
     10 C10        -9.3668   -0.1360   56.6277 C.2     1  ZINC000185180600    0.5400
     11 O11        -9.1684   -0.5486   57.7508 O.2     1  ZINC000185180600   -0.5300
     12 C12        -8.5352    0.9968   56.0833 C.3     1  ZINC000185180600   -0.5000
     13 S13        -7.1028    1.2684   57.1627 S.o     1  ZINC000185180600    1.3200
     14 O14        -7.5493    1.6773   58.4483 O.2     1  ZINC000185180600   -0.8000
     15 C15        -6.2396    2.6451   56.3564 C.3     1  ZINC000185180600   -0.3900
     16 C16        -5.0053    2.9958   57.1465 C.2     1  ZINC000185180600    0.1000
     17 N17        -3.7961    2.5498   56.9185 N.2     1  ZINC000185180600   -0.2800
     18 N18        -2.9354    3.1108   57.8709 N.pl3   1  ZINC000185180600   -0.3200
     19 C19        -1.5552    2.8852   57.9705 C.ar    1  ZINC000185180600    0.1700
     20 C20        -0.7041    3.3282   56.9671 C.ar    1  ZINC000185180600   -0.1300
     21 C21         0.6551    3.1046   57.0673 C.ar    1  ZINC000185180600   -0.0800
     22 C22         1.1688    2.4392   58.1666 C.ar    1  ZINC000185180600   -0.0500
     23 Cl23        2.8777    2.1597   58.2897 Cl      1  ZINC000185180600   -0.0600
     24 C24         0.3224    1.9967   59.1681 C.ar    1  ZINC000185180600   -0.0800
     25 C25        -1.0368    2.2232   59.0753 C.ar    1  ZINC000185180600   -0.1100
     26 C26        -3.6716    3.9084   58.6773 C.2     1  ZINC000185180600    0.0600
     27 C27        -4.9535    3.8591   58.2463 C.2     1  ZINC000185180600   -0.2500
     28 H28       -15.0273   -1.2774   57.1120 H       1  ZINC000185180600    0.0500
     29 H29       -13.8805    0.0688   57.3145 H       1  ZINC000185180600    0.0600
     30 H30       -13.6645   -1.0916   55.9822 H       1  ZINC000185180600    0.0500
     31 H31       -13.4351   -1.7345   58.9573 H       1  ZINC000185180600    0.0700
     32 H32       -14.2865   -3.6427   57.6776 H       1  ZINC000185180600    0.0500
     33 H33       -13.0202   -3.4185   56.4469 H       1  ZINC000185180600    0.0500
     34 H34       -12.5801   -3.9308   58.0937 H       1  ZINC000185180600    0.0500
     35 H35       -11.5709   -0.3493   57.9346 H       1  ZINC000185180600    0.0700
     36 H36       -11.0543   -1.9403   58.5428 H       1  ZINC000185180600    0.0800
     37 H37        -9.4339   -2.8756   57.1462 H       1  ZINC000185180600    0.0600
     38 H38       -10.8808   -3.8768   56.8768 H       1  ZINC000185180600    0.0700
     39 H39        -9.9146   -3.3177   55.4903 H       1  ZINC000185180600    0.0600
     40 H40       -11.3120    0.6086   54.5442 H       1  ZINC000185180600    0.0600
     41 H41        -9.6407    0.1933   54.0943 H       1  ZINC000185180600    0.0700
     42 H42       -10.9422   -1.0028   53.8848 H       1  ZINC000185180600    0.0800
     43 H43        -8.1916    0.7455   55.0798 H       1  ZINC000185180600    0.1500
     44 H44        -9.1381    1.9040   56.0444 H       1  ZINC000185180600    0.1200
     45 H45        -5.9533    2.3527   55.3461 H       1  ZINC000185180600    0.1400
     46 H46        -6.8999    3.5112   56.3106 H       1  ZINC000185180600    0.1000
     47 H47        -1.1047    3.8469   56.1086 H       1  ZINC000185180600    0.1400
     48 H48         1.3175    3.4491   56.2869 H       1  ZINC000185180600    0.1500
     49 H49         0.7256    1.4772   60.0249 H       1  ZINC000185180600    0.1400
     50 H50        -1.6969    1.8777   59.8571 H       1  ZINC000185180600    0.1500
     51 H51        -3.3021    4.4851   59.5125 H       1  ZINC000185180600    0.1800
     52 H52        -5.7901    4.3869   58.6797 H       1  ZINC000185180600    0.1700
@<TRIPOS>BOND
     1     1     2    1
     2     1    28    1
     3     1    29    1
     4     1    30    1
     5     2     3    1
     6     2     4    1
     7     2    31    1
     8     3    32    1
     9     3    33    1
    10     3    34    1
    11     4     5    1
    12     4    35    1
    13     4    36    1
    14     5     6    1
    15     5     7    1
    16     5     8    1
    17     7    37    1
    18     7    38    1
    19     7    39    1
    20     8     9    1
    21     8    10   am
    22     9    40    1
    23     9    41    1
    24     9    42    1
    25    10    11    2
    26    10    12    1
    27    12    13    1
    28    12    43    1
    29    12    44    1
    30    13    14    2
    31    13    15    1
    32    15    16    1
    33    15    45    1
    34    15    46    1
    35    16    27    1
    36    16    17    2
    37    17    18    1
    38    18    19    1
    39    18    26    1
    40    19    25   ar
    41    19    20   ar
    42    20    21   ar
    43    20    47    1
    44    21    22   ar
    45    21    48    1
    46    22    23    1
    47    22    24   ar
    48    24    25   ar
    49    24    49    1
    50    25    50    1
    51    26    27    2
    52    26    51    1
    53    27    52    1
@<TRIPOS>SUBSTRUCTURE
     1 ZINC000185180600        1 TEMP              0 ****  ****    0 ROOT


##########                                Name:    ZINC000787750060
##########                DOCK_Rotatable_Bonds:                   6
##########                         Heavy_Atoms:                  24
##########                    Molecular_Weight:             347.438
##########                DOCK_Rotatable_Bonds:                   6
##########                       Formal_Charge:           0.0200003
##########                     HBond_Acceptors:                   7
##########                        HBond_Donors:                   2
##########                         Heavy_Atoms:                  24
##########                          Grid_Score:          -29.489027
##########                     Grid_vdw_energy:          -29.837545
##########                      Grid_es_energy:            0.348518
##########           Internal_energy_repulsive:            6.602877

@<TRIPOS>MOLECULE
ZINC000787750060
 45 47 1 0 0
SMALL
USER_CHARGES


@<TRIPOS>ATOM
      1 C1         -6.5952    2.2385   51.1062 C.3     1  ZINC000787750060   -0.1200
      2 C2         -6.9544    2.0431   52.5567 C.ar    1  ZINC000787750060   -0.0400
      3 C3         -8.0900    1.3256   52.8941 C.ar    1  ZINC000787750060   -0.1300
      4 C4         -8.4282    1.1407   54.2174 C.ar    1  ZINC000787750060   -0.0700
      5 C5         -7.6226    1.6784   55.2237 C.ar    1  ZINC000787750060   -0.1700
      6 C6         -7.9783    1.4838   56.6423 C.2     1  ZINC000787750060    0.5600
      7 O7         -8.7131    2.2765   57.1991 O.2     1  ZINC000787750060   -0.5200
      8 N8         -7.4887    0.4273   57.3210 N.am    1  ZINC000787750060   -0.7300
      9 C9         -7.8406    0.2351   58.7300 C.3     1  ZINC000787750060    0.2100
     10 C10        -9.1029   -0.5826   58.8255 C.2     1  ZINC000787750060   -0.2800
     11 C11        -9.3459   -1.5464   59.7141 C.2     1  ZINC000787750060    0.0900
     12 N12       -10.5305   -2.1190   59.5936 N.2     1  ZINC000787750060   -0.5200
     13 C13       -11.2985   -1.6827   58.6441 C.2     1  ZINC000787750060    0.2300
     14 N14       -12.5701   -2.1607   58.3685 N.3     1  ZINC000787750060   -0.4500
     15 C15       -13.2816   -2.5095   59.6067 C.3     1  ZINC000787750060    0.0200
     16 C16       -14.6984   -2.9751   59.2609 C.3     1  ZINC000787750060    0.0600
     17 O17       -14.6244   -4.0756   58.3506 O.3     1  ZINC000787750060   -0.3800
     18 C18       -13.9384   -3.7707   57.1334 C.3     1  ZINC000787750060    0.0600
     19 C19       -12.5137   -3.3133   57.4577 C.3     1  ZINC000787750060    0.0300
     20 S20       -10.5175   -0.4261   57.7873 S.3     1  ZINC000787750060    0.1700
     21 C21        -6.4738    2.4036   54.8781 C.ar    1  ZINC000787750060    0.1700
     22 O22        -5.6837    2.9306   55.8468 O.3     1  ZINC000787750060   -0.4700
     23 C23        -6.1462    2.5758   53.5418 C.ar    1  ZINC000787750060   -0.1200
     24 C24        -4.9126    3.3544   53.1637 C.3     1  ZINC000787750060   -0.1200
     25 H25        -5.9594    1.4172   50.7755 H       1  ZINC000787750060    0.0800
     26 H26        -7.5049    2.2581   50.5061 H       1  ZINC000787750060    0.0700
     27 H27        -6.0615    3.1815   50.9879 H       1  ZINC000787750060    0.0800
     28 H28        -8.7136    0.9094   52.1168 H       1  ZINC000787750060    0.1300
     29 H29        -9.3150    0.5810   54.4758 H       1  ZINC000787750060    0.1300
     30 H30        -6.9035   -0.2057   56.8764 H       1  ZINC000787750060    0.4000
     31 H31        -7.0303   -0.2869   59.2389 H       1  ZINC000787750060    0.0900
     32 H32        -7.9997    1.2053   59.2005 H       1  ZINC000787750060    0.0800
     33 H33        -8.6321   -1.8358   60.4712 H       1  ZINC000787750060    0.1800
     34 H34       -12.7497   -3.3116   60.1185 H       1  ZINC000787750060    0.0600
     35 H35       -13.3340   -1.6351   60.2552 H       1  ZINC000787750060    0.1000
     36 H36       -15.2107   -3.2889   60.1705 H       1  ZINC000787750060    0.1100
     37 H37       -15.2479   -2.1557   58.7974 H       1  ZINC000787750060    0.0700
     38 H38       -13.9007   -4.6600   56.5042 H       1  ZINC000787750060    0.1100
     39 H39       -14.4655   -2.9744   56.6080 H       1  ZINC000787750060    0.0600
     40 H40       -12.0056   -3.0254   56.5373 H       1  ZINC000787750060    0.1000
     41 H41       -11.9695   -4.1282   57.9351 H       1  ZINC000787750060    0.0700
     42 H42        -5.0627    3.5996   55.5271 H       1  ZINC000787750060    0.4000
     43 H43        -4.0615    2.6766   53.0968 H       1  ZINC000787750060    0.0700
     44 H44        -5.0692    3.8373   52.1992 H       1  ZINC000787750060    0.0700
     45 H45        -4.7148    4.1123   53.9216 H       1  ZINC000787750060    0.0800
@<TRIPOS>BOND
     1     1     2    1
     2     1    25    1
     3     1    26    1
     4     1    27    1
     5     2    23   ar
     6     2     3   ar
     7     3     4   ar
     8     3    28    1
     9     4     5   ar
    10     4    29    1
    11     5     6    1
    12     5    21   ar
    13     6     7    2
    14     6     8   am
    15     8     9    1
    16     8    30    1
    17     9    10    1
    18     9    31    1
    19     9    32    1
    20    10    20    1
    21    10    11    2
    22    11    12    1
    23    11    33    1
    24    12    13    2
    25    13    14    1
    26    13    20    1
    27    14    19    1
    28    14    15    1
    29    15    16    1
    30    15    34    1
    31    15    35    1
    32    16    17    1
    33    16    36    1
    34    16    37    1
    35    17    18    1
    36    18    19    1
    37    18    38    1
    38    18    39    1
    39    19    40    1
    40    19    41    1
    41    21    22    1
    42    21    23   ar
    43    22    42    1
    44    23    24    1
    45    24    43    1
    46    24    44    1
    47    24    45    1
@<TRIPOS>SUBSTRUCTURE
     1 ZINC000787750060        1 TEMP              0 ****  ****    0 ROOT


##########                                Name:    ZINC000768148687
##########                DOCK_Rotatable_Bonds:                   8
##########                         Heavy_Atoms:                  25
##########                    Molecular_Weight:             371.307
##########                DOCK_Rotatable_Bonds:                   8
##########                       Formal_Charge:         2.98023e-08
##########                     HBond_Acceptors:                  11
##########                        HBond_Donors:                   0
##########                         Heavy_Atoms:                  25
##########                          Grid_Score:          -29.481827
##########                     Grid_vdw_energy:          -27.121391
##########                      Grid_es_energy:           -2.360435
##########           Internal_energy_repulsive:           11.536226

@<TRIPOS>MOLECULE
ZINC000768148687
 43 44 1 0 0
SMALL
USER_CHARGES


@<TRIPOS>ATOM
      1 C1         -9.3972    1.8488   61.8188 C.3     1  ZINC000768148687   -0.1800
      2 C2         -9.6304    0.3806   62.1806 C.3     1  ZINC000768148687    0.1100
      3 N3        -10.3052   -0.2950   61.0696 N.pl3   1  ZINC000768148687   -0.3100
      4 N4        -11.6888   -0.4428   60.9220 N.2     1  ZINC000768148687   -0.2000
      5 C5        -11.9291   -1.0946   59.8180 C.2     1  ZINC000768148687    0.0200
      6 C6        -13.2897   -1.4646   59.2862 C.3     1  ZINC000768148687    0.5500
      7 F7        -13.2647   -2.7827   58.8181 F       1  ZINC000768148687   -0.1600
      8 F8        -14.2370   -1.3510   60.3093 F       1  ZINC000768148687   -0.1600
      9 F9        -13.6304   -0.6037   58.2375 F       1  ZINC000768148687   -0.1500
     10 C10       -10.6895   -1.3931   59.2081 C.2     1  ZINC000768148687   -0.1800
     11 C11       -10.4900   -2.1193   57.9423 C.2     1  ZINC000768148687    0.5300
     12 O12        -9.9656   -3.2156   57.9468 O.2     1  ZINC000768148687   -0.4700
     13 O13       -10.8890   -1.5681   56.7791 O.3     1  ZINC000768148687   -0.3400
     14 C14       -10.3211   -2.1168   55.5606 C.3     1  ZINC000768148687    0.0200
     15 C15       -10.4449   -1.0902   54.4330 C.3     1  ZINC000768148687    0.0600
     16 N16        -9.1995   -0.3173   54.3355 N.3     1  ZINC000768148687   -0.5300
     17 C17        -9.0079    0.5252   55.5249 C.3     1  ZINC000768148687    0.0100
     18 C18        -7.6731    1.2660   55.4093 C.3     1  ZINC000768148687    0.0600
     19 O19        -7.6595    2.0274   54.1987 O.3     1  ZINC000768148687   -0.3800
     20 C20        -7.8428    1.2382   53.0202 C.3     1  ZINC000768148687    0.0600
     21 C21        -9.1794    0.4971   53.1116 C.3     1  ZINC000768148687    0.0100
     22 C22        -9.7005   -0.8712   60.0189 C.2     1  ZINC000768148687    0.0600
     23 C23        -8.2153   -0.9442   59.7741 C.3     1  ZINC000768148687    0.3400
     24 F24        -7.8716   -2.2402   59.3749 F       1  ZINC000768148687   -0.1700
     25 F25        -7.8634   -0.0378   58.7683 F       1  ZINC000768148687   -0.1800
     26 H26        -8.8952    2.3514   62.6455 H       1  ZINC000768148687    0.0900
     27 H27        -8.7752    1.9086   60.9257 H       1  ZINC000768148687    0.0700
     28 H28       -10.3551    2.3324   61.6275 H       1  ZINC000768148687    0.0700
     29 H29        -8.6725   -0.1031   62.3720 H       1  ZINC000768148687    0.1100
     30 H30       -10.2524    0.3208   63.0738 H       1  ZINC000768148687    0.1200
     31 H31        -9.2694   -2.3522   55.7238 H       1  ZINC000768148687    0.0800
     32 H32       -10.8583   -3.0246   55.2861 H       1  ZINC000768148687    0.0800
     33 H33       -10.6269   -1.6062   53.4903 H       1  ZINC000768148687    0.1100
     34 H34       -11.2751   -0.4165   54.6446 H       1  ZINC000768148687    0.0900
     35 H35        -9.8207    1.2482   55.5936 H       1  ZINC000768148687    0.0500
     36 H36        -9.0005   -0.1010   56.4171 H       1  ZINC000768148687    0.0900
     37 H37        -7.5531    1.9351   56.2614 H       1  ZINC000768148687    0.1000
     38 H38        -6.8564    0.5443   55.3945 H       1  ZINC000768148687    0.0600
     39 H39        -7.8457    1.8871   52.1445 H       1  ZINC000768148687    0.1000
     40 H40        -7.0312    0.5157   52.9360 H       1  ZINC000768148687    0.0600
     41 H41        -9.2972   -0.1495   52.2422 H       1  ZINC000768148687    0.0800
     42 H42        -9.9949    1.2197   53.1418 H       1  ZINC000768148687    0.0700
     43 H43        -7.6830   -0.6934   60.6916 H       1  ZINC000768148687    0.1500
@<TRIPOS>BOND
     1     1     2    1
     2     1    26    1
     3     1    27    1
     4     1    28    1
     5     2     3    1
     6     2    29    1
     7     2    30    1
     8     3    22    1
     9     3     4    1
    10     4     5    2
    11     5     6    1
    12     5    10    1
    13     6     7    1
    14     6     8    1
    15     6     9    1
    16    10    11    1
    17    10    22    2
    18    11    12    2
    19    11    13    1
    20    13    14    1
    21    14    15    1
    22    14    31    1
    23    14    32    1
    24    15    16    1
    25    15    33    1
    26    15    34    1
    27    16    21    1
    28    16    17    1
    29    17    18    1
    30    17    35    1
    31    17    36    1
    32    18    19    1
    33    18    37    1
    34    18    38    1
    35    19    20    1
    36    20    21    1
    37    20    39    1
    38    20    40    1
    39    21    41    1
    40    21    42    1
    41    22    23    1
    42    23    24    1
    43    23    25    1
    44    23    43    1
@<TRIPOS>SUBSTRUCTURE
     1 ZINC000768148687        1 TEMP              0 ****  ****    0 ROOT


##########                                Name:    ZINC001342153661
##########                DOCK_Rotatable_Bonds:                   8
##########                         Heavy_Atoms:                  29
##########                    Molecular_Weight:             395.548
##########                DOCK_Rotatable_Bonds:                   8
##########                       Formal_Charge:          -0.0400005
##########                     HBond_Acceptors:                   6
##########                        HBond_Donors:                   1
##########                         Heavy_Atoms:                  29
##########                          Grid_Score:          -29.434492
##########                     Grid_vdw_energy:          -29.356825
##########                      Grid_es_energy:           -0.077667
##########           Internal_energy_repulsive:           28.373232

@<TRIPOS>MOLECULE
ZINC001342153661
 62 65 1 0 0
SMALL
USER_CHARGES


@<TRIPOS>ATOM
      1 C1         -8.7503    2.5271   58.9668 C.2     1  ZINC001342153661   -0.1400
      2 C2         -8.7696    1.2178   58.9293 C.2     1  ZINC001342153661   -0.1600
      3 C3         -9.0224    0.4315   60.1898 C.3     1  ZINC001342153661   -0.1200
      4 C4         -8.5386    0.4979   57.6257 C.3     1  ZINC001342153661    0.1500
      5 N5         -9.8273    0.1109   57.0465 N.pl3   1  ZINC001342153661   -0.4700
      6 C6        -10.5184   -1.0477   57.2702 C.2     1  ZINC001342153661    0.1800
      7 C7        -10.0949   -2.1809   58.1688 C.3     1  ZINC001342153661   -0.0600
      8 C8        -10.7210   -3.4861   57.6734 C.3     1  ZINC001342153661    0.1600
      9 H9        -10.5681   -3.5771   56.5980 H       1  ZINC001342153661    0.1000
     10 O10       -10.1053   -4.5917   58.3372 O.3     1  ZINC001342153661   -0.5400
     11 C11       -12.1981   -3.4799   57.9722 C.ar    1  ZINC001342153661   -0.1700
     12 C12       -12.6897   -2.7866   59.0673 C.ar    1  ZINC001342153661   -0.0600
     13 C13       -14.0561   -2.8084   59.3031 C.ar    1  ZINC001342153661   -0.1700
     14 C14       -14.8763   -3.5156   58.4448 C.ar    1  ZINC001342153661    0.1000
     15 N15       -14.3734   -4.1638   57.4122 N.ar    1  ZINC001342153661   -0.4800
     16 C16       -13.0804   -4.1606   57.1544 C.ar    1  ZINC001342153661    0.1100
     17 N17       -11.6112   -0.9898   56.5631 N.2     1  ZINC001342153661   -0.2700
     18 N18       -11.6573    0.1179   55.9129 N.2     1  ZINC001342153661   -0.3200
     19 C19       -10.5900    0.8342   56.1763 C.2     1  ZINC001342153661    0.3600
     20 N20       -10.2896    2.0853   55.6615 N.3     1  ZINC001342153661   -0.4500
     21 C21       -11.4372    2.9935   55.7826 C.3     1  ZINC001342153661    0.0500
     22 C22       -11.0255    4.3995   55.3401 C.3     1  ZINC001342153661   -0.1200
     23 C23       -10.5402    4.3510   53.8887 C.3     1  ZINC001342153661   -0.1200
     24 C24        -9.3763    3.3618   53.7808 C.3     1  ZINC001342153661   -0.0800
     25 H25        -8.5464    3.7077   54.3969 H       1  ZINC001342153661    0.0800
     26 C26        -8.9236    3.2630   52.3227 C.3     1  ZINC001342153661   -0.0800
     27 C27        -8.2975    4.6011   51.8576 C.3     1  ZINC001342153661   -0.1200
     28 C28        -7.3914    4.1636   50.6800 C.3     1  ZINC001342153661   -0.1300
     29 C29        -6.8034    2.8125   51.1369 C.3     1  ZINC001342153661   -0.1300
     30 C30        -7.7777    2.2399   52.1814 C.3     1  ZINC001342153661   -0.1200
     31 C31        -9.8358    1.9858   54.2684 C.3     1  ZINC001342153661    0.0800
     32 H32        -8.9159    3.0431   59.9011 H       1  ZINC001342153661    0.1000
     33 H33        -8.5648    3.0905   58.0643 H       1  ZINC001342153661    0.1100
     34 H34       -10.0964    0.3342   60.3481 H       1  ZINC001342153661    0.0700
     35 H35        -8.5778   -0.5592   60.0954 H       1  ZINC001342153661    0.0600
     36 H36        -8.5758    0.9508   61.0378 H       1  ZINC001342153661    0.0700
     37 H37        -8.0130    1.1571   56.9348 H       1  ZINC001342153661    0.1000
     38 H38        -7.9382   -0.3940   57.8046 H       1  ZINC001342153661    0.1000
     39 H39        -9.0086   -2.2703   58.1534 H       1  ZINC001342153661    0.1100
     40 H40       -10.4286   -1.9814   59.1872 H       1  ZINC001342153661    0.1000
     41 H41       -10.2017   -4.5761   59.2992 H       1  ZINC001342153661    0.3800
     42 H42       -12.0244   -2.2427   59.7215 H       1  ZINC001342153661    0.1300
     43 H43       -14.4738   -2.2799   60.1472 H       1  ZINC001342153661    0.1400
     44 H44       -15.9415   -3.5377   58.6218 H       1  ZINC001342153661    0.1600
     45 H45       -12.7052   -4.7033   56.2993 H       1  ZINC001342153661    0.1500
     46 H46       -12.2505    2.6374   55.1502 H       1  ZINC001342153661    0.0500
     47 H47       -11.7698    3.0221   56.8202 H       1  ZINC001342153661    0.0700
     48 H48       -11.8816    5.0700   55.4154 H       1  ZINC001342153661    0.0800
     49 H49       -10.2215    4.7618   55.9808 H       1  ZINC001342153661    0.0700
     50 H50       -11.3556    4.0259   53.2426 H       1  ZINC001342153661    0.0600
     51 H51       -10.2052    5.3423   53.5834 H       1  ZINC001342153661    0.0700
     52 H52        -9.7614    2.9883   51.6818 H       1  ZINC001342153661    0.0800
     53 H53        -9.0695    5.2905   51.5154 H       1  ZINC001342153661    0.0700
     54 H54        -7.7048    5.0484   52.6555 H       1  ZINC001342153661    0.0700
     55 H55        -7.9808    4.0356   49.7721 H       1  ZINC001342153661    0.0600
     56 H56        -6.5958    4.8912   50.5201 H       1  ZINC001342153661    0.0600
     57 H57        -6.7247    2.1334   50.2880 H       1  ZINC001342153661    0.0600
     58 H58        -5.8220    2.9651   51.5859 H       1  ZINC001342153661    0.0600
     59 H59        -7.2690    2.1146   53.1373 H       1  ZINC001342153661    0.0600
     60 H60        -8.1716    1.2829   51.8393 H       1  ZINC001342153661    0.0600
     61 H61        -9.0054    1.2826   54.2062 H       1  ZINC001342153661    0.0900
     62 H62       -10.6567    1.6345   53.6432 H       1  ZINC001342153661    0.0500
@<TRIPOS>BOND
     1     1     2    2
     2     1    32    1
     3     1    33    1
     4     2     3    1
     5     2     4    1
     6     3    34    1
     7     3    35    1
     8     3    36    1
     9     4     5    1
    10     4    37    1
    11     4    38    1
    12     5    19    1
    13     5     6    1
    14     6     7    1
    15     6    17    2
    16     7     8    1
    17     7    39    1
    18     7    40    1
    19     8     9    1
    20     8    10    1
    21     8    11    1
    22    10    41    1
    23    11    16   ar
    24    11    12   ar
    25    12    13   ar
    26    12    42    1
    27    13    14   ar
    28    13    43    1
    29    14    15   ar
    30    14    44    1
    31    15    16   ar
    32    16    45    1
    33    17    18    1
    34    18    19    2
    35    19    20    1
    36    20    31    1
    37    20    21    1
    38    21    22    1
    39    21    46    1
    40    21    47    1
    41    22    23    1
    42    22    48    1
    43    22    49    1
    44    23    24    1
    45    23    50    1
    46    23    51    1
    47    24    25    1
    48    24    26    1
    49    24    31    1
    50    26    30    1
    51    26    27    1
    52    26    52    1
    53    27    28    1
    54    27    53    1
    55    27    54    1
    56    28    29    1
    57    28    55    1
    58    28    56    1
    59    29    30    1
    60    29    57    1
    61    29    58    1
    62    30    59    1
    63    30    60    1
    64    31    61    1
    65    31    62    1
@<TRIPOS>SUBSTRUCTURE
     1 ZINC001342153661        1 TEMP              0 ****  ****    0 ROOT


##########                                Name:    ZINC001143596311
##########                DOCK_Rotatable_Bonds:                   9
##########                         Heavy_Atoms:                  21
##########                    Molecular_Weight:             335.811
##########                DOCK_Rotatable_Bonds:                   9
##########                       Formal_Charge:          0.00999959
##########                     HBond_Acceptors:                   9
##########                        HBond_Donors:                   3
##########                         Heavy_Atoms:                  21
##########                          Grid_Score:          -29.412800
##########                     Grid_vdw_energy:          -26.663334
##########                      Grid_es_energy:           -2.749466
##########           Internal_energy_repulsive:           16.780073

@<TRIPOS>MOLECULE
ZINC001143596311
 39 39 1 0 0
SMALL
USER_CHARGES


@<TRIPOS>ATOM
      1 C1         -6.9863   -0.5626   66.1242 C.3     1  ZINC001143596311    0.0400
      2 O2         -8.2820   -1.1095   65.8707 O.3     1  ZINC001143596311   -0.2600
      3 N3         -9.2041   -0.1783   65.2205 N.3     1  ZINC001143596311   -0.3700
      4 C4         -9.3207    1.0690   65.9878 C.3     1  ZINC001143596311    0.0000
      5 C5         -8.7911    0.0915   63.8368 C.3     1  ZINC001143596311    0.0400
      6 C6         -9.7820    1.0603   63.1885 C.3     1  ZINC001143596311   -0.1300
      7 C7         -9.6221    1.0116   61.6676 C.3     1  ZINC001143596311    0.1200
      8 N8        -10.5296    0.0040   61.1131 N.am    1  ZINC001143596311   -0.7200
      9 C9        -10.3232   -0.4784   59.8717 C.2     1  ZINC001143596311    0.5600
     10 O10        -9.3833   -0.0786   59.2127 O.2     1  ZINC001143596311   -0.5200
     11 C11       -11.2396   -1.4937   59.3117 C.ar    1  ZINC001143596311   -0.1500
     12 C12       -10.7309   -2.5741   58.5887 C.ar    1  ZINC001143596311   -0.0200
     13 C13       -11.5910   -3.5183   58.0686 C.ar    1  ZINC001143596311   -0.1300
     14 C14       -12.9569   -3.3962   58.2620 C.ar    1  ZINC001143596311    0.0700
     15 Cl15      -14.0334   -4.5888   57.6043 Cl      1  ZINC001143596311   -0.0200
     16 C16       -13.4676   -2.3263   58.9788 C.ar    1  ZINC001143596311   -0.6800
     17 S17       -15.2069   -2.1797   59.2202 S.o2    1  ZINC001143596311    2.7000
     18 N18       -15.9080   -2.1367   57.7206 N.am    1  ZINC001143596311   -1.2500
     19 O19       -15.6313   -3.3925   59.8270 O.2     1  ZINC001143596311   -0.9400
     20 O20       -15.4249   -0.9016   59.8019 O.2     1  ZINC001143596311   -0.9500
     21 C21       -12.6173   -1.3793   59.5088 C.ar    1  ZINC001143596311    0.0500
     22 H22        -6.5283   -0.2616   65.1819 H       1  ZINC001143596311    0.0400
     23 H23        -7.0796    0.3057   66.7765 H       1  ZINC001143596311    0.0500
     24 H24        -6.3626   -1.3147   66.6074 H       1  ZINC001143596311    0.0900
     25 H25        -8.3416    1.5420   66.0633 H       1  ZINC001143596311    0.0400
     26 H26       -10.0120    1.7432   65.4823 H       1  ZINC001143596311    0.0900
     27 H27        -9.6951    0.8471   66.9871 H       1  ZINC001143596311    0.0800
     28 H28        -7.7954    0.5349   63.8347 H       1  ZINC001143596311    0.0500
     29 H29        -8.7743   -0.8418   63.2741 H       1  ZINC001143596311    0.0900
     30 H30       -10.7989    0.7730   63.4562 H       1  ZINC001143596311    0.0800
     31 H31        -9.5853    2.0723   63.5423 H       1  ZINC001143596311    0.0800
     32 H32        -9.8616    1.9877   61.2457 H       1  ZINC001143596311    0.0800
     33 H33        -8.5936    0.7506   61.4186 H       1  ZINC001143596311    0.0800
     34 H34       -11.2789   -0.3160   61.6395 H       1  ZINC001143596311    0.4000
     35 H35        -9.6660   -2.6700   58.4365 H       1  ZINC001143596311    0.1500
     36 H36       -11.1987   -4.3546   57.5089 H       1  ZINC001143596311    0.1600
     37 H37       -15.7936   -2.8818   57.1101 H       1  ZINC001143596311    0.4200
     38 H38       -16.4332   -1.3664   57.4527 H       1  ZINC001143596311    0.4200
     39 H39       -13.0165   -0.5456   60.0674 H       1  ZINC001143596311    0.1700
@<TRIPOS>BOND
     1     1     2    1
     2     1    22    1
     3     1    23    1
     4     1    24    1
     5     2     3    1
     6     3     4    1
     7     3     5    1
     8     4    25    1
     9     4    26    1
    10     4    27    1
    11     5     6    1
    12     5    28    1
    13     5    29    1
    14     6     7    1
    15     6    30    1
    16     6    31    1
    17     7     8    1
    18     7    32    1
    19     7    33    1
    20     8     9   am
    21     8    34    1
    22     9    10    2
    23     9    11    1
    24    11    21   ar
    25    11    12   ar
    26    12    13   ar
    27    12    35    1
    28    13    14   ar
    29    13    36    1
    30    14    15    1
    31    14    16   ar
    32    16    17    1
    33    16    21   ar
    34    17    18   am
    35    17    19    2
    36    17    20    2
    37    18    37    1
    38    18    38    1
    39    21    39    1
@<TRIPOS>SUBSTRUCTURE
     1 ZINC001143596311        1 TEMP              0 ****  ****    0 ROOT


##########                                Name:    ZINC000817655807
##########                DOCK_Rotatable_Bonds:                   3
##########                         Heavy_Atoms:                  24
##########                    Molecular_Weight:             352.774
##########                DOCK_Rotatable_Bonds:                   3
##########                       Formal_Charge:         3.35276e-07
##########                     HBond_Acceptors:                   8
##########                        HBond_Donors:                   0
##########                         Heavy_Atoms:                  24
##########                          Grid_Score:          -29.400408
##########                     Grid_vdw_energy:          -29.764734
##########                      Grid_es_energy:            0.364327
##########           Internal_energy_repulsive:            2.450630

@<TRIPOS>MOLECULE
ZINC000817655807
 41 44 1 0 0
SMALL
USER_CHARGES


@<TRIPOS>ATOM
      1 C1        -14.6032   -3.3438   59.2909 C.3     1  ZINC000817655807    0.1100
      2 N2        -13.4737   -3.1556   58.3770 N.am    1  ZINC000817655807   -0.6400
      3 C3        -12.4041   -2.1533   58.5306 C.3     1  ZINC000817655807    0.1000
      4 C4        -11.5091   -2.4045   57.3136 C.3     1  ZINC000817655807    0.0500
      5 C5        -11.1507   -1.1702   56.4857 C.3     1  ZINC000817655807    0.1200
      6 N6         -9.9234   -1.1106   57.3068 N.am    1  ZINC000817655807   -0.6500
      7 C7         -9.0633   -0.1304   57.6472 C.2     1  ZINC000817655807    0.5500
      8 O8         -8.1110   -0.3784   58.3561 O.2     1  ZINC000817655807   -0.5100
      9 C9         -9.2847    1.2737   57.1467 C.3     1  ZINC000817655807   -0.0900
     10 C10        -8.2466    1.6057   56.1060 C.ar    1  ZINC000817655807   -0.0600
     11 C11        -7.1248    2.3323   56.4579 C.ar    1  ZINC000817655807   -0.0900
     12 C12        -6.1709    2.6407   55.5047 C.ar    1  ZINC000817655807   -0.0300
     13 Cl13       -4.7634    3.5540   55.9501 Cl      1  ZINC000817655807   -0.0500
     14 C14        -6.3381    2.2203   54.1930 C.ar    1  ZINC000817655807    0.0600
     15 O15        -5.3952    2.5380   53.2640 O.3     1  ZINC000817655807   -0.2900
     16 C16        -5.4121    1.7849   52.0463 C.3     1  ZINC000817655807    0.0200
     17 C17        -6.8624    1.7045   51.5510 C.3     1  ZINC000817655807    0.0200
     18 O18        -7.6460    1.0600   52.5612 O.3     1  ZINC000817655807   -0.3000
     19 C19        -7.4646    1.4866   53.8409 C.ar    1  ZINC000817655807    0.0600
     20 C20        -8.4154    1.1780   54.8024 C.ar    1  ZINC000817655807   -0.0900
     21 C21       -10.0161   -2.5549   57.6061 C.3     1  ZINC000817655807    0.1100
     22 O22       -12.1373   -3.4956   56.6018 O.3     1  ZINC000817655807   -0.3000
     23 C23       -13.2405   -3.8713   57.2663 C.2     1  ZINC000817655807    0.6400
     24 O24       -13.9658   -4.7718   56.8927 O.2     1  ZINC000817655807   -0.5100
     25 H25       -15.2308   -4.1587   58.9300 H       1  ZINC000817655807    0.0900
     26 H26       -14.2293   -3.5864   60.2857 H       1  ZINC000817655807    0.0700
     27 H27       -15.1900   -2.4263   59.3371 H       1  ZINC000817655807    0.0700
     28 H28       -12.8158   -1.1443   58.5035 H       1  ZINC000817655807    0.1000
     29 H29       -11.8513   -2.3195   59.4552 H       1  ZINC000817655807    0.1000
     30 H30       -10.9662   -1.3846   55.4331 H       1  ZINC000817655807    0.1100
     31 H31       -11.8241   -0.3268   56.6385 H       1  ZINC000817655807    0.1000
     32 H32       -10.2786    1.3498   56.7058 H       1  ZINC000817655807    0.1100
     33 H33        -9.2018    1.9732   57.9786 H       1  ZINC000817655807    0.1100
     34 H34        -6.9929    2.6600   57.4784 H       1  ZINC000817655807    0.1400
     35 H35        -4.7952    2.2823   51.2980 H       1  ZINC000817655807    0.1300
     36 H36        -5.0302    0.7806   52.2299 H       1  ZINC000817655807    0.0800
     37 H37        -7.2464    2.7090   51.3731 H       1  ZINC000817655807    0.0800
     38 H38        -6.9042    1.1257   50.6284 H       1  ZINC000817655807    0.1300
     39 H39        -9.2905    0.6061   54.5314 H       1  ZINC000817655807    0.1400
     40 H40        -9.7937   -2.8046   58.6436 H       1  ZINC000817655807    0.1000
     41 H41        -9.4890   -3.1873   56.8918 H       1  ZINC000817655807    0.1100
@<TRIPOS>BOND
     1     1     2    1
     2     1    25    1
     3     1    26    1
     4     1    27    1
     5     2    23   am
     6     2     3    1
     7     3     4    1
     8     3    28    1
     9     3    29    1
    10     4    21    1
    11     4     5    1
    12     4    22    1
    13     5     6    1
    14     5    30    1
    15     5    31    1
    16     6     7   am
    17     6    21    1
    18     7     8    2
    19     7     9    1
    20     9    10    1
    21     9    32    1
    22     9    33    1
    23    10    20   ar
    24    10    11   ar
    25    11    12   ar
    26    11    34    1
    27    12    13    1
    28    12    14   ar
    29    14    19   ar
    30    14    15    1
    31    15    16    1
    32    16    17    1
    33    16    35    1
    34    16    36    1
    35    17    18    1
    36    17    37    1
    37    17    38    1
    38    18    19    1
    39    19    20   ar
    40    20    39    1
    41    21    40    1
    42    21    41    1
    43    22    23    1
    44    23    24    2
@<TRIPOS>SUBSTRUCTURE
     1 ZINC000817655807        1 TEMP              0 ****  ****    0 ROOT


##########                                Name:    ZINC000573150059
##########                DOCK_Rotatable_Bonds:                   7
##########                         Heavy_Atoms:                  23
##########                    Molecular_Weight:             378.269
##########                DOCK_Rotatable_Bonds:                   7
##########                       Formal_Charge:        -2.98023e-07
##########                     HBond_Acceptors:                   5
##########                        HBond_Donors:                   2
##########                         Heavy_Atoms:                  23
##########                          Grid_Score:          -29.355869
##########                     Grid_vdw_energy:          -28.606169
##########                      Grid_es_energy:           -0.749701
##########           Internal_energy_repulsive:           20.038200

@<TRIPOS>MOLECULE
ZINC000573150059
 43 44 1 0 0
SMALL
USER_CHARGES


@<TRIPOS>ATOM
      1 C1        -15.6778   -1.0844   58.8290 C.3     1  ZINC000573150059    0.0300
      2 O2        -15.6055   -2.1145   59.8168 O.3     1  ZINC000573150059   -0.3600
      3 C3        -14.5154   -3.0201   59.6335 C.3     1  ZINC000573150059    0.0700
      4 H4        -14.5304   -3.7712   60.4232 H       1  ZINC000573150059    0.0900
      5 C5        -14.6466   -3.7077   58.2731 C.3     1  ZINC000573150059   -0.1700
      6 C6        -13.2156   -2.2593   59.6886 C.2     1  ZINC000573150059    0.5100
      7 O7        -13.1430   -1.2280   60.3228 O.2     1  ZINC000573150059   -0.4900
      8 N8        -12.1341   -2.7248   59.0330 N.am    1  ZINC000573150059   -0.6700
      9 C9        -10.9273   -2.0184   59.0841 C.ar    1  ZINC000573150059    0.1900
     10 C10       -10.1437   -2.0629   60.2303 C.ar    1  ZINC000573150059   -0.2000
     11 C11        -8.9518   -1.3657   60.2818 C.ar    1  ZINC000573150059   -0.0500
     12 C12        -8.5351   -0.6229   59.1944 C.ar    1  ZINC000573150059   -0.2200
     13 C13        -9.3142   -0.5746   58.0444 C.ar    1  ZINC000573150059    0.2400
     14 N14        -8.8921    0.1763   56.9450 N.pl3   1  ZINC000573150059   -0.7300
     15 C15        -9.6681    0.1561   55.7026 C.3     1  ZINC000573150059    0.2000
     16 H16       -10.0109   -0.8595   55.5050 H       1  ZINC000573150059    0.1000
     17 C17       -10.8764    1.0845   55.8409 C.3     1  ZINC000573150059   -0.1700
     18 C18        -8.8022    0.6251   54.5618 C.ar    1  ZINC000573150059    0.1400
     19 C19        -8.6176   -0.1933   53.4637 C.ar    1  ZINC000573150059   -0.1600
     20 C20        -7.8196    0.2473   52.4190 C.ar    1  ZINC000573150059   -0.0400
     21 C21        -7.2342    1.5009   52.5189 C.ar    1  ZINC000573150059   -0.1500
     22 Br22       -6.1358    2.1587   51.1272 Br      1  ZINC000573150059   -0.0300
     23 C23        -7.4648    2.2639   53.6494 C.ar    1  ZINC000573150059    0.1400
     24 N24        -8.2340    1.8137   54.6210 N.ar    1  ZINC000573150059   -0.4700
     25 C25       -10.5093   -1.2775   57.9879 C.ar    1  ZINC000573150059   -0.1900
     26 H26       -14.7618   -0.4941   58.8521 H       1  ZINC000573150059    0.0500
     27 H27       -15.7954   -1.5341   57.8431 H       1  ZINC000573150059    0.0400
     28 H28       -16.5311   -0.4394   59.0384 H       1  ZINC000573150059    0.0900
     29 H29       -14.6317   -2.9565   57.4834 H       1  ZINC000573150059    0.0700
     30 H30       -13.8151   -4.3984   58.1333 H       1  ZINC000573150059    0.0700
     31 H31       -15.5866   -4.2580   58.2333 H       1  ZINC000573150059    0.0700
     32 H32       -12.1921   -3.5496   58.5258 H       1  ZINC000573150059    0.4100
     33 H33       -10.4667   -2.6428   61.0823 H       1  ZINC000573150059    0.1200
     34 H34        -8.3448   -1.4015   61.1744 H       1  ZINC000573150059    0.1300
     35 H35        -7.6032   -0.0789   59.2379 H       1  ZINC000573150059    0.1200
     36 H36        -8.0850    0.7113   57.0041 H       1  ZINC000573150059    0.4100
     37 H37       -10.5336    2.1001   56.0385 H       1  ZINC000573150059    0.0600
     38 H38       -11.4537    1.0694   54.9165 H       1  ZINC000573150059    0.0700
     39 H39       -11.5027    0.7453   56.6660 H       1  ZINC000573150059    0.0700
     40 H40        -9.0889   -1.1640   53.4199 H       1  ZINC000573150059    0.1500
     41 H41        -7.6572   -0.3709   51.5485 H       1  ZINC000573150059    0.1500
     42 H42        -7.0127    3.2409   53.7355 H       1  ZINC000573150059    0.1700
     43 H43       -11.1164   -1.2419   57.0955 H       1  ZINC000573150059    0.1400
@<TRIPOS>BOND
     1     1     2    1
     2     1    26    1
     3     1    27    1
     4     1    28    1
     5     2     3    1
     6     3     4    1
     7     3     5    1
     8     3     6    1
     9     5    29    1
    10     5    30    1
    11     5    31    1
    12     6     7    2
    13     6     8   am
    14     8     9    1
    15     8    32    1
    16     9    25   ar
    17     9    10   ar
    18    10    11   ar
    19    10    33    1
    20    11    12   ar
    21    11    34    1
    22    12    13   ar
    23    12    35    1
    24    13    14    1
    25    13    25   ar
    26    14    15    1
    27    14    36    1
    28    15    16    1
    29    15    17    1
    30    15    18    1
    31    17    37    1
    32    17    38    1
    33    17    39    1
    34    18    24   ar
    35    18    19   ar
    36    19    20   ar
    37    19    40    1
    38    20    21   ar
    39    20    41    1
    40    21    22    1
    41    21    23   ar
    42    23    24   ar
    43    23    42    1
    44    25    43    1
@<TRIPOS>SUBSTRUCTURE
     1 ZINC000573150059        1 TEMP              0 ****  ****    0 ROOT


##########                                Name:    ZINC000417533280
##########                DOCK_Rotatable_Bonds:                   9
##########                         Heavy_Atoms:                  26
##########                    Molecular_Weight:             367.439
##########                DOCK_Rotatable_Bonds:                   9
##########                       Formal_Charge:         -0.00999999
##########                     HBond_Acceptors:                   7
##########                        HBond_Donors:                   2
##########                         Heavy_Atoms:                  26
##########                          Grid_Score:          -29.343735
##########                     Grid_vdw_energy:          -28.792761
##########                      Grid_es_energy:           -0.550974
##########           Internal_energy_repulsive:           17.853241

@<TRIPOS>MOLECULE
ZINC000417533280
 53 54 1 0 0
SMALL
USER_CHARGES


@<TRIPOS>ATOM
      1 C1         -5.5677    0.0372   67.3345 C.3     1  ZINC000417533280   -0.1600
      2 C2         -6.9925   -0.1863   67.8455 C.3     1  ZINC000417533280   -0.1200
      3 C3         -7.9912    0.3919   66.8410 C.3     1  ZINC000417533280   -0.1200
      4 C4         -7.8183   -0.3062   65.4905 C.3     1  ZINC000417533280   -0.1300
      5 C5         -8.8167    0.2724   64.4858 C.3     1  ZINC000417533280    0.1200
      6 N6         -8.5871   -0.3269   63.1689 N.am    1  ZINC000417533280   -0.7300
      7 C7         -9.0923    0.2582   62.0649 C.2     1  ZINC000417533280    0.5200
      8 O8         -9.7358    1.2817   62.1615 O.2     1  ZINC000417533280   -0.5400
      9 C9         -8.8577   -0.3593   60.7103 C.3     1  ZINC000417533280   -0.1100
     10 C10        -9.9721   -1.3637   60.4080 C.3     1  ZINC000417533280   -0.1300
     11 C11        -9.7117   -2.0146   59.0459 C.3     1  ZINC000417533280    0.1300
     12 N12        -9.5626   -0.9568   58.0371 N.am    1  ZINC000417533280   -0.6200
     13 C13       -10.3123   -0.9655   56.9170 C.2     1  ZINC000417533280    0.7100
     14 O14       -11.1213   -1.8545   56.7340 O.2     1  ZINC000417533280   -0.5600
     15 N15       -10.1651    0.0112   56.0001 N.am    1  ZINC000417533280   -0.6800
     16 C16       -10.9441    0.0021   54.8362 C.ar    1  ZINC000417533280    0.1900
     17 C17       -10.4905   -0.6569   53.7017 C.ar    1  ZINC000417533280   -0.1100
     18 C18       -11.2599   -0.6659   52.5539 C.ar    1  ZINC000417533280   -0.1100
     19 C19       -12.4826   -0.0181   52.5338 C.ar    1  ZINC000417533280    0.0500
     20 F20       -13.2333   -0.0285   51.4106 F       1  ZINC000417533280   -0.1300
     21 C21       -12.9385    0.6413   53.6658 C.ar    1  ZINC000417533280    0.0900
     22 F22       -14.1324    1.2731   53.6446 F       1  ZINC000417533280   -0.1200
     23 C23       -12.1733    0.6474   54.8176 C.ar    1  ZINC000417533280   -0.1300
     24 C24       -12.6681    1.3631   56.0480 C.3     1  ZINC000417533280   -0.1200
     25 C25        -8.5812    0.1109   58.2727 C.3     1  ZINC000417533280    0.1100
     26 C26        -8.8543    0.7379   59.6436 C.3     1  ZINC000417533280   -0.1200
     27 H27        -5.4446   -0.4601   66.3723 H       1  ZINC000417533280    0.0500
     28 H28        -5.3874    1.1058   67.2168 H       1  ZINC000417533280    0.0500
     29 H29        -4.8563   -0.3746   68.0501 H       1  ZINC000417533280    0.0500
     30 H30        -7.1728   -1.2548   67.9632 H       1  ZINC000417533280    0.0600
     31 H31        -7.1156    0.3110   68.8076 H       1  ZINC000417533280    0.0600
     32 H32        -9.0061    0.2326   67.2050 H       1  ZINC000417533280    0.0700
     33 H33        -7.8108    1.4604   66.7233 H       1  ZINC000417533280    0.0700
     34 H34        -6.8032   -0.1473   65.1266 H       1  ZINC000417533280    0.0700
     35 H35        -7.9990   -1.3747   65.6081 H       1  ZINC000417533280    0.0700
     36 H36        -9.8322    0.0506   64.8139 H       1  ZINC000417533280    0.0700
     37 H37        -8.6832    1.3523   64.4218 H       1  ZINC000417533280    0.0700
     38 H38        -8.0714   -1.1449   63.0914 H       1  ZINC000417533280    0.4000
     39 H39        -7.8960   -0.8722   60.7067 H       1  ZINC000417533280    0.1000
     40 H40        -9.9889   -2.1320   61.1810 H       1  ZINC000417533280    0.0800
     41 H41       -10.9316   -0.8471   60.3869 H       1  ZINC000417533280    0.0800
     42 H42        -8.7975   -2.6065   59.0925 H       1  ZINC000417533280    0.0700
     43 H43       -10.5518   -2.6564   58.7809 H       1  ZINC000417533280    0.1000
     44 H44        -9.5197    0.7204   56.1462 H       1  ZINC000417533280    0.4100
     45 H45        -9.5362   -1.1624   53.7161 H       1  ZINC000417533280    0.1700
     46 H46       -10.9063   -1.1784   51.6715 H       1  ZINC000417533280    0.1500
     47 H47       -13.2527    0.6748   56.6584 H       1  ZINC000417533280    0.0800
     48 H48       -11.8170    1.7264   56.6240 H       1  ZINC000417533280    0.0700
     49 H49       -13.2925    2.2059   55.7516 H       1  ZINC000417533280    0.0800
     50 H50        -7.5749   -0.3076   58.2563 H       1  ZINC000417533280    0.0800
     51 H51        -8.6756    0.8715   57.4976 H       1  ZINC000417533280    0.0800
     52 H52        -9.8244    1.2348   59.6296 H       1  ZINC000417533280    0.0800
     53 H53        -8.0756    1.4655   59.8724 H       1  ZINC000417533280    0.0900
@<TRIPOS>BOND
     1     1     2    1
     2     1    27    1
     3     1    28    1
     4     1    29    1
     5     2     3    1
     6     2    30    1
     7     2    31    1
     8     3     4    1
     9     3    32    1
    10     3    33    1
    11     4     5    1
    12     4    34    1
    13     4    35    1
    14     5     6    1
    15     5    36    1
    16     5    37    1
    17     6     7   am
    18     6    38    1
    19     7     8    2
    20     7     9    1
    21     9    26    1
    22     9    10    1
    23     9    39    1
    24    10    11    1
    25    10    40    1
    26    10    41    1
    27    11    12    1
    28    11    42    1
    29    11    43    1
    30    12    13   am
    31    12    25    1
    32    13    14    2
    33    13    15   am
    34    15    16    1
    35    15    44    1
    36    16    23   ar
    37    16    17   ar
    38    17    18   ar
    39    17    45    1
    40    18    19   ar
    41    18    46    1
    42    19    20    1
    43    19    21   ar
    44    21    22    1
    45    21    23   ar
    46    23    24    1
    47    24    47    1
    48    24    48    1
    49    24    49    1
    50    25    26    1
    51    25    50    1
    52    25    51    1
    53    26    52    1
    54    26    53    1
@<TRIPOS>SUBSTRUCTURE
     1 ZINC000417533280        1 TEMP              0 ****  ****    0 ROOT


##########                                Name:    ZINC000892249927
##########                DOCK_Rotatable_Bonds:                   8
##########                         Heavy_Atoms:                  27
##########                    Molecular_Weight:             364.487
##########                DOCK_Rotatable_Bonds:                   8
##########                       Formal_Charge:          -0.0300015
##########                     HBond_Acceptors:                   4
##########                        HBond_Donors:                   1
##########                         Heavy_Atoms:                  27
##########                          Grid_Score:          -29.336115
##########                     Grid_vdw_energy:          -29.346392
##########                      Grid_es_energy:            0.010277
##########           Internal_energy_repulsive:            9.146937

@<TRIPOS>MOLECULE
ZINC000892249927
 55 58 1 0 0
SMALL
USER_CHARGES


@<TRIPOS>ATOM
      1 O1         -7.5115    1.0960   52.3981 O.2     1  ZINC000892249927   -0.5300
      2 C2         -8.1302    1.8286   53.1407 C.2     1  ZINC000892249927    0.5100
      3 C3         -7.5198    3.1286   53.5974 C.3     1  ZINC000892249927   -0.1400
      4 C4         -6.0610    2.8951   53.9953 C.3     1  ZINC000892249927   -0.1000
      5 C5         -5.6128    3.9959   54.9587 C.3     1  ZINC000892249927   -0.0800
      6 C6         -4.3584    3.5598   55.6711 C.ar    1  ZINC000892249927   -0.0900
      7 C7         -3.1412    3.6045   55.0174 C.ar    1  ZINC000892249927   -0.1100
      8 C8         -1.9906    3.2045   55.6708 C.ar    1  ZINC000892249927   -0.1100
      9 C9         -2.0570    2.7602   56.9781 C.ar    1  ZINC000892249927   -0.0500
     10 C10        -0.8027    2.3237   57.6903 C.3     1  ZINC000892249927   -0.1200
     11 C11         0.5018    3.0335   57.3226 C.3     1  ZINC000892249927   -0.1800
     12 C12        -0.1668    3.3114   58.6705 C.3     1  ZINC000892249927   -0.1700
     13 C13        -3.2740    2.7169   57.6323 C.ar    1  ZINC000892249927   -0.1200
     14 C14        -4.4241    3.1205   56.9801 C.ar    1  ZINC000892249927   -0.1100
     15 N15        -9.3659    1.4828   53.5531 N.am    1  ZINC000892249927   -0.7300
     16 C16        -9.9592    0.2190   53.1092 C.3     1  ZINC000892249927    0.1400
     17 H17        -9.4838   -0.1013   52.1821 H       1  ZINC000892249927    0.1000
     18 C18       -11.4605    0.4121   52.8750 C.3     1  ZINC000892249927   -0.1700
     19 C19       -12.1315    0.7872   54.1990 C.3     1  ZINC000892249927    0.0600
     20 O20       -11.8770   -0.2333   55.1664 O.3     1  ZINC000892249927   -0.3700
     21 C21       -10.4919   -0.4257   55.4608 C.3     1  ZINC000892249927    0.1400
     22 H22       -10.0667    0.5060   55.8338 H       1  ZINC000892249927    0.0700
     23 C23       -10.3452   -1.4997   56.5078 C.ar    1  ZINC000892249927   -0.1400
     24 C24        -9.5437   -1.2915   57.6194 C.ar    1  ZINC000892249927   -0.0700
     25 C25        -9.4388   -2.3076   58.5573 C.ar    1  ZINC000892249927   -0.1700
     26 C26       -10.1318   -3.4857   58.3540 C.ar    1  ZINC000892249927    0.1000
     27 N27       -10.8855   -3.6490   57.2840 N.ar    1  ZINC000892249927   -0.4900
     28 C28       -11.0128   -2.7028   56.3747 C.ar    1  ZINC000892249927    0.1300
     29 C29        -9.7531   -0.8502   54.1866 C.3     1  ZINC000892249927   -0.1500
     30 H30        -7.5632    3.8552   52.7860 H       1  ZINC000892249927    0.0900
     31 H31        -8.0741    3.5087   54.4555 H       1  ZINC000892249927    0.0900
     32 H32        -5.9684    1.9249   54.4836 H       1  ZINC000892249927    0.0700
     33 H33        -5.4338    2.9146   53.1041 H       1  ZINC000892249927    0.0700
     34 H34        -5.4137    4.9097   54.3990 H       1  ZINC000892249927    0.0700
     35 H35        -6.3997    4.1815   55.6898 H       1  ZINC000892249927    0.0700
     36 H36        -3.0892    3.9516   53.9960 H       1  ZINC000892249927    0.1200
     37 H37        -1.0397    3.2387   55.1598 H       1  ZINC000892249927    0.1200
     38 H38        -0.7470    1.2634   57.9368 H       1  ZINC000892249927    0.1100
     39 H39         1.4161    2.4402   57.3272 H       1  ZINC000892249927    0.1000
     40 H40         0.4528    3.8164   56.5657 H       1  ZINC000892249927    0.1000
     41 H41        -0.6556    4.2769   58.8003 H       1  ZINC000892249927    0.1000
     42 H42         0.3078    2.9008   59.5617 H       1  ZINC000892249927    0.1000
     43 H43        -3.3260    2.3701   58.6538 H       1  ZINC000892249927    0.1200
     44 H44        -5.3749    3.0866   57.4913 H       1  ZINC000892249927    0.1200
     45 H45        -9.8622    2.0706   54.1439 H       1  ZINC000892249927    0.4000
     46 H46       -11.6163    1.2100   52.1489 H       1  ZINC000892249927    0.0800
     47 H47       -11.8926   -0.5147   52.4975 H       1  ZINC000892249927    0.0800
     48 H48       -11.7277    1.7348   54.5555 H       1  ZINC000892249927    0.0500
     49 H49       -13.2065    0.8841   54.0471 H       1  ZINC000892249927    0.1000
     50 H50        -9.0131   -0.3601   57.7518 H       1  ZINC000892249927    0.1300
     51 H51        -8.8230   -2.1799   59.4353 H       1  ZINC000892249927    0.1400
     52 H52       -10.0552   -4.2820   59.0795 H       1  ZINC000892249927    0.1600
     53 H53       -11.6391   -2.8730   55.5113 H       1  ZINC000892249927    0.1600
     54 H54       -10.1502   -1.8026   53.8354 H       1  ZINC000892249927    0.0900
     55 H55        -8.6893   -0.9545   54.4000 H       1  ZINC000892249927    0.0800
@<TRIPOS>BOND
     1     1     2    2
     2     2     3    1
     3     2    15   am
     4     3     4    1
     5     3    30    1
     6     3    31    1
     7     4     5    1
     8     4    32    1
     9     4    33    1
    10     5     6    1
    11     5    34    1
    12     5    35    1
    13     6    14   ar
    14     6     7   ar
    15     7     8   ar
    16     7    36    1
    17     8     9   ar
    18     8    37    1
    19     9    10    1
    20     9    13   ar
    21    10    12    1
    22    10    11    1
    23    10    38    1
    24    11    12    1
    25    11    39    1
    26    11    40    1
    27    12    41    1
    28    12    42    1
    29    13    14   ar
    30    13    43    1
    31    14    44    1
    32    15    16    1
    33    15    45    1
    34    16    17    1
    35    16    29    1
    36    16    18    1
    37    18    19    1
    38    18    46    1
    39    18    47    1
    40    19    20    1
    41    19    48    1
    42    19    49    1
    43    20    21    1
    44    21    22    1
    45    21    23    1
    46    21    29    1
    47    23    28   ar
    48    23    24   ar
    49    24    25   ar
    50    24    50    1
    51    25    26   ar
    52    25    51    1
    53    26    27   ar
    54    26    52    1
    55    27    28   ar
    56    28    53    1
    57    29    54    1
    58    29    55    1
@<TRIPOS>SUBSTRUCTURE
     1 ZINC000892249927        1 TEMP              0 ****  ****    0 ROOT


##########                                Name:    ZINC000846412382
##########                DOCK_Rotatable_Bonds:                   6
##########                         Heavy_Atoms:                  26
##########                    Molecular_Weight:             370.475
##########                DOCK_Rotatable_Bonds:                   6
##########                       Formal_Charge:               -0.03
##########                     HBond_Acceptors:                   7
##########                        HBond_Donors:                   4
##########                         Heavy_Atoms:                  26
##########                          Grid_Score:          -29.320875
##########                     Grid_vdw_energy:          -29.741283
##########                      Grid_es_energy:            0.420409
##########           Internal_energy_repulsive:           19.651306

@<TRIPOS>MOLECULE
ZINC000846412382
 48 50 1 0 0
SMALL
USER_CHARGES


@<TRIPOS>ATOM
      1 C1        -10.2084   -1.7203   55.4244 C.3     1  ZINC000846412382   -0.1400
      2 C2         -9.2645   -0.5521   55.5482 C.2     1  ZINC000846412382    0.0300
      3 C3         -8.9535   -0.0071   56.7311 C.2     1  ZINC000846412382   -0.2700
      4 C4         -9.4770   -0.4637   58.0244 C.2     1  ZINC000846412382    0.6000
      5 O5         -8.9683   -1.4164   58.5845 O.2     1  ZINC000846412382   -0.5200
      6 N6        -10.5211    0.1727   58.5912 N.am    1  ZINC000846412382   -0.7100
      7 C7        -11.0447   -0.2840   59.8811 C.3     1  ZINC000846412382    0.1200
      8 H8        -10.8917   -1.3591   59.9752 H       1  ZINC000846412382    0.1000
      9 C9        -10.3105    0.4367   61.0136 C.3     1  ZINC000846412382   -0.1700
     10 C10       -12.5403    0.0274   59.9636 C.3     1  ZINC000846412382    0.1700
     11 C11       -12.8347    1.3212   59.2016 C.3     1  ZINC000846412382   -0.1400
     12 O12       -12.9196    0.1842   61.3324 O.3     1  ZINC000846412382   -0.5500
     13 C13       -13.3238   -1.1052   59.3517 C.ar    1  ZINC000846412382   -0.1200
     14 C14       -13.2688   -1.3263   57.9883 C.ar    1  ZINC000846412382   -0.1100
     15 C15       -13.9875   -2.3653   57.4270 C.ar    1  ZINC000846412382   -0.1200
     16 C16       -14.7607   -3.1834   58.2292 C.ar    1  ZINC000846412382   -0.1200
     17 C17       -14.8150   -2.9628   59.5929 C.ar    1  ZINC000846412382   -0.1200
     18 C18       -14.0930   -1.9265   60.1546 C.ar    1  ZINC000846412382   -0.1000
     19 S19        -7.8334    1.3284   56.5223 S.3     1  ZINC000846412382    0.2000
     20 C20        -7.8154    1.1051   54.7782 C.ar    1  ZINC000846412382    0.1400
     21 N21        -7.1648    1.7610   53.8105 N.ar    1  ZINC000846412382   -0.5300
     22 C22        -7.3003    1.4184   52.5498 C.ar    1  ZINC000846412382    0.3900
     23 C23        -6.5439    2.1908   51.5000 C.3     1  ZINC000846412382   -0.0900
     24 N24        -8.0767    0.4194   52.1716 N.ar    1  ZINC000846412382   -0.5800
     25 C25        -8.7623   -0.2913   53.0540 C.ar    1  ZINC000846412382    0.5100
     26 N26        -9.5691   -1.3322   52.6411 N.pl3   1  ZINC000846412382   -0.8300
     27 C27        -8.6497    0.0319   54.4358 C.ar    1  ZINC000846412382   -0.2500
     28 H28        -9.6366   -2.6477   55.3942 H       1  ZINC000846412382    0.0800
     29 H29       -10.8814   -1.7361   56.2816 H       1  ZINC000846412382    0.1100
     30 H30       -10.7899   -1.6218   54.5077 H       1  ZINC000846412382    0.0700
     31 H31       -10.9260    0.9331   58.1453 H       1  ZINC000846412382    0.4000
     32 H32       -10.4636    1.5118   60.9194 H       1  ZINC000846412382    0.0600
     33 H33       -10.7000    0.0969   61.9732 H       1  ZINC000846412382    0.0800
     34 H34        -9.2450    0.2149   60.9548 H       1  ZINC000846412382    0.0700
     35 H35       -12.5455    1.2017   58.1574 H       1  ZINC000846412382    0.0700
     36 H36       -13.9002    1.5431   59.2603 H       1  ZINC000846412382    0.0700
     37 H37       -12.2680    2.1404   59.6441 H       1  ZINC000846412382    0.0700
     38 H38       -12.7721   -0.6034   61.8739 H       1  ZINC000846412382    0.3800
     39 H39       -12.6646   -0.6871   57.3615 H       1  ZINC000846412382    0.1300
     40 H40       -13.9450   -2.5376   56.3617 H       1  ZINC000846412382    0.1200
     41 H41       -15.3228   -3.9946   57.7906 H       1  ZINC000846412382    0.1200
     42 H42       -15.4194   -3.6018   60.2196 H       1  ZINC000846412382    0.1200
     43 H43       -14.1354   -1.7541   61.2200 H       1  ZINC000846412382    0.1300
     44 H44        -5.5706    1.7272   51.3385 H       1  ZINC000846412382    0.0900
     45 H45        -7.1083    2.1849   50.5675 H       1  ZINC000846412382    0.0900
     46 H46        -6.4056    3.2189   51.8344 H       1  ZINC000846412382    0.0900
     47 H47        -9.8961   -1.3597   51.7282 H       1  ZINC000846412382    0.4100
     48 H48        -9.8090   -2.0363   53.2636 H       1  ZINC000846412382    0.4200
@<TRIPOS>BOND
     1     1     2    1
     2     1    28    1
     3     1    29    1
     4     1    30    1
     5     2    27    1
     6     2     3    2
     7     3     4    1
     8     3    19    1
     9     4     5    2
    10     4     6   am
    11     6     7    1
    12     6    31    1
    13     7     8    1
    14     7     9    1
    15     7    10    1
    16     9    32    1
    17     9    33    1
    18     9    34    1
    19    10    11    1
    20    10    12    1
    21    10    13    1
    22    11    35    1
    23    11    36    1
    24    11    37    1
    25    12    38    1
    26    13    18   ar
    27    13    14   ar
    28    14    15   ar
    29    14    39    1
    30    15    16   ar
    31    15    40    1
    32    16    17   ar
    33    16    41    1
    34    17    18   ar
    35    17    42    1
    36    18    43    1
    37    19    20    1
    38    20    27   ar
    39    20    21   ar
    40    21    22   ar
    41    22    23    1
    42    22    24   ar
    43    23    44    1
    44    23    45    1
    45    23    46    1
    46    24    25   ar
    47    25    26    1
    48    25    27   ar
    49    26    47    1
    50    26    48    1
@<TRIPOS>SUBSTRUCTURE
     1 ZINC000846412382        1 TEMP              0 ****  ****    0 ROOT


##########                                Name:    ZINC000899027326
##########                DOCK_Rotatable_Bonds:                   5
##########                         Heavy_Atoms:                  22
##########                    Molecular_Weight:             346.169
##########                DOCK_Rotatable_Bonds:                   5
##########                       Formal_Charge:           0.0300005
##########                     HBond_Acceptors:                   9
##########                        HBond_Donors:                   1
##########                         Heavy_Atoms:                  22
##########                          Grid_Score:          -29.282787
##########                     Grid_vdw_energy:          -28.890507
##########                      Grid_es_energy:           -0.392280
##########           Internal_energy_repulsive:           12.810126

@<TRIPOS>MOLECULE
ZINC000899027326
 35 36 1 0 0
SMALL
USER_CHARGES


@<TRIPOS>ATOM
      1 C1        -15.0703   -2.8066   59.9210 C.3     1  ZINC000899027326   -0.1500
      2 C2        -14.0306   -2.1059   59.0441 C.3     1  ZINC000899027326    0.1100
      3 H3        -14.5012   -1.3326   58.4369 H       1  ZINC000899027326    0.1400
      4 C4        -12.9248   -1.5155   59.8964 C.2     1  ZINC000899027326    0.5300
      5 O5        -13.0351   -0.6632   60.7515 O.2     1  ZINC000899027326   -0.4500
      6 N6        -11.7937   -2.1356   59.5062 N.am    1  ZINC000899027326   -0.3700
      7 N7        -10.5281   -1.8796   60.0501 N.am    1  ZINC000899027326   -0.5000
      8 C8         -9.6869   -1.0296   59.4286 C.2     1  ZINC000899027326    0.5200
      9 O9        -10.0261   -0.4852   58.3993 O.2     1  ZINC000899027326   -0.4800
     10 C10        -8.3250   -0.7556   60.0127 C.3     1  ZINC000899027326    0.0500
     11 O11        -8.4268   -0.6616   61.4350 O.3     1  ZINC000899027326   -0.2700
     12 C12        -8.8639    0.5199   61.9457 C.ar    1  ZINC000899027326    0.1400
     13 C13        -9.2427    1.5466   61.0943 C.ar    1  ZINC000899027326   -0.1900
     14 C14        -9.6868    2.7471   61.6153 C.ar    1  ZINC000899027326   -0.0600
     15 C15        -9.7536    2.9255   62.9854 C.ar    1  ZINC000899027326   -0.0600
     16 Cl16      -10.3125    4.4346   63.6368 Cl      1  ZINC000899027326   -0.0500
     17 C17        -9.3762    1.9026   63.8377 C.ar    1  ZINC000899027326   -0.0600
     18 C18        -8.9369    0.6984   63.3208 C.ar    1  ZINC000899027326   -0.0500
     19 Cl19       -8.4634   -0.5850   64.3898 Cl      1  ZINC000899027326   -0.0300
     20 C20       -12.0287   -3.0265   58.5361 C.2     1  ZINC000899027326    0.7000
     21 O21       -11.1646   -3.7094   58.0223 O.2     1  ZINC000899027326   -0.5200
     22 N22       -13.3310   -3.0811   58.1900 N.am    1  ZINC000899027326   -0.6200
     23 C23       -13.9298   -3.9440   57.1687 C.3     1  ZINC000899027326    0.1200
     24 H24       -14.5799   -3.5668   60.5290 H       1  ZINC000899027326    0.0700
     25 H25       -15.5496   -2.0748   60.5712 H       1  ZINC000899027326    0.0900
     26 H26       -15.8221   -3.2773   59.2875 H       1  ZINC000899027326    0.0900
     27 H27       -10.2574   -2.3141   60.8740 H       1  ZINC000899027326    0.4300
     28 H28        -7.6469   -1.5674   59.7498 H       1  ZINC000899027326    0.1100
     29 H29        -7.9404    0.1828   59.6132 H       1  ZINC000899027326    0.1100
     30 H30        -9.1905    1.4082   60.0245 H       1  ZINC000899027326    0.1500
     31 H31        -9.9815    3.5469   60.9521 H       1  ZINC000899027326    0.1500
     32 H32        -9.4291    2.0437   64.9071 H       1  ZINC000899027326    0.1500
     33 H33       -13.1537   -4.5568   56.7102 H       1  ZINC000899027326    0.0900
     34 H34       -14.6766   -4.5896   57.6308 H       1  ZINC000899027326    0.0700
     35 H35       -14.4046   -3.3278   56.4052 H       1  ZINC000899027326    0.0700
@<TRIPOS>BOND
     1     1     2    1
     2     1    24    1
     3     1    25    1
     4     1    26    1
     5     2     3    1
     6     2    22    1
     7     2     4    1
     8     4     5    2
     9     4     6   am
    10     6     7    1
    11     6    20   am
    12     7     8   am
    13     7    27    1
    14     8     9    2
    15     8    10    1
    16    10    11    1
    17    10    28    1
    18    10    29    1
    19    11    12    1
    20    12    18   ar
    21    12    13   ar
    22    13    14   ar
    23    13    30    1
    24    14    15   ar
    25    14    31    1
    26    15    16    1
    27    15    17   ar
    28    17    18   ar
    29    17    32    1
    30    18    19    1
    31    20    21    2
    32    20    22   am
    33    22    23    1
    34    23    33    1
    35    23    34    1
    36    23    35    1
@<TRIPOS>SUBSTRUCTURE
     1 ZINC000899027326        1 TEMP              0 ****  ****    0 ROOT


##########                                Name:    ZINC000822206030
##########                DOCK_Rotatable_Bonds:                   7
##########                         Heavy_Atoms:                  29
##########                    Molecular_Weight:             391.448
##########                DOCK_Rotatable_Bonds:                   7
##########                       Formal_Charge:         -0.00999995
##########                     HBond_Acceptors:                   7
##########                        HBond_Donors:                   1
##########                         Heavy_Atoms:                  29
##########                          Grid_Score:          -29.281734
##########                     Grid_vdw_energy:          -24.904421
##########                      Grid_es_energy:           -4.377315
##########           Internal_energy_repulsive:           46.662502

@<TRIPOS>MOLECULE
ZINC000822206030
 51 55 1 0 0
SMALL
USER_CHARGES


@<TRIPOS>ATOM
      1 C1         -8.7505    0.8998   56.3538 C.3     1  ZINC000822206030   -0.1300
      2 C2         -8.1061    1.8100   57.3675 C.ar    1  ZINC000822206030   -0.0400
      3 C3         -6.9377    2.4759   57.0540 C.ar    1  ZINC000822206030   -0.1500
      4 C4         -6.3448    3.3121   57.9854 C.ar    1  ZINC000822206030    0.1100
      5 F5         -5.2016    3.9624   57.6770 F       1  ZINC000822206030   -0.1400
      6 C6         -6.9225    3.4827   59.2321 C.ar    1  ZINC000822206030   -0.1500
      7 C7         -8.0912    2.8183   59.5497 C.ar    1  ZINC000822206030   -0.0800
      8 C8         -8.6899    1.9838   58.6155 C.ar    1  ZINC000822206030    0.1100
      9 N9         -9.8749    1.3097   58.9352 N.am    1  ZINC000822206030   -0.5600
     10 C10        -9.8200   -0.0442   59.4923 C.3     1  ZINC000822206030    0.1500
     11 C11        -9.5067    0.0308   60.9644 C.ar    1  ZINC000822206030   -0.0900
     12 C12        -8.4266   -0.6660   61.4755 C.ar    1  ZINC000822206030   -0.1000
     13 C13        -8.1350   -0.6005   62.8229 C.ar    1  ZINC000822206030   -0.0800
     14 C14        -8.9305    0.1691   63.6687 C.ar    1  ZINC000822206030   -0.0100
     15 C15        -8.6214    0.2436   65.1188 C.2     1  ZINC000822206030    0.2200
     16 N16        -9.0175    1.1766   65.9613 N.2     1  ZINC000822206030   -0.2900
     17 N17        -8.5428    0.8859   67.1236 N.pl3   1  ZINC000822206030   -0.2300
     18 N18        -7.8585   -0.2016   67.0441 N.2     1  ZINC000822206030   -0.0500
     19 N19        -7.8896   -0.6280   65.8272 N.2     1  ZINC000822206030   -0.2700
     20 C20       -10.0171    0.8688   63.1488 C.ar    1  ZINC000822206030   -0.0800
     21 C21       -10.2968    0.8005   61.7989 C.ar    1  ZINC000822206030   -0.0900
     22 C22       -11.0659    1.9063   58.7303 C.2     1  ZINC000822206030    0.5500
     23 O23       -12.0923    1.3218   59.0058 O.2     1  ZINC000822206030   -0.5000
     24 C24       -11.1223    3.2996   58.1590 C.3     1  ZINC000822206030   -0.1900
     25 H25       -10.3174    3.9670   58.4671 H       1  ZINC000822206030    0.1200
     26 C26       -12.5046    3.9162   57.9355 C.3     1  ZINC000822206030   -0.1400
     27 C27       -11.6674    3.4591   56.7383 C.3     1  ZINC000822206030   -0.0900
     28 H28       -11.2214    4.2316   56.1118 H       1  ZINC000822206030    0.1100
     29 C29       -12.1142    2.1922   56.0061 C.3     1  ZINC000822206030   -0.1100
     30 C30       -13.2360    1.3678   56.6406 C.3     1  ZINC000822206030   -0.2000
     31 C31       -13.5109    2.1925   55.3816 C.3     1  ZINC000822206030   -0.1200
     32 H32        -9.4501    1.4721   55.7446 H       1  ZINC000822206030    0.0900
     33 H33        -7.9818    0.4665   55.7140 H       1  ZINC000822206030    0.0700
     34 H34        -9.2858    0.1026   56.8697 H       1  ZINC000822206030    0.0700
     35 H35        -6.4859    2.3445   56.0820 H       1  ZINC000822206030    0.1400
     36 H36        -6.4588    4.1354   59.9570 H       1  ZINC000822206030    0.1400
     37 H37        -8.5412    2.9513   60.5223 H       1  ZINC000822206030    0.1400
     38 H38       -10.7830   -0.5348   59.3503 H       1  ZINC000822206030    0.1000
     39 H39        -9.0429   -0.6150   58.9840 H       1  ZINC000822206030    0.0900
     40 H40        -7.8106   -1.2627   60.8190 H       1  ZINC000822206030    0.1300
     41 H41        -7.2916   -1.1452   63.2210 H       1  ZINC000822206030    0.1400
     42 H42        -8.6794    1.4052   67.9314 H       1  ZINC000822206030    0.4800
     43 H43       -10.6373    1.4666   63.8002 H       1  ZINC000822206030    0.1300
     44 H44       -11.1389    1.3427   61.3947 H       1  ZINC000822206030    0.1400
     45 H45       -13.3732    3.3139   58.2017 H       1  ZINC000822206030    0.1000
     46 H46       -12.6091    4.9892   58.0962 H       1  ZINC000822206030    0.1000
     47 H47       -11.3277    1.6514   55.4797 H       1  ZINC000822206030    0.1000
     48 H48       -13.1877    0.2843   56.5320 H       1  ZINC000822206030    0.0900
     49 H49       -13.6558    1.7279   57.5798 H       1  ZINC000822206030    0.0900
     50 H50       -14.1116    3.0952   55.4925 H       1  ZINC000822206030    0.0800
     51 H51       -13.6434    1.6516   54.4447 H       1  ZINC000822206030    0.0900
@<TRIPOS>BOND
     1     1     2    1
     2     1    32    1
     3     1    33    1
     4     1    34    1
     5     2     8   ar
     6     2     3   ar
     7     3     4   ar
     8     3    35    1
     9     4     5    1
    10     4     6   ar
    11     6     7   ar
    12     6    36    1
    13     7     8   ar
    14     7    37    1
    15     8     9    1
    16     9    10    1
    17     9    22   am
    18    10    11    1
    19    10    38    1
    20    10    39    1
    21    11    21   ar
    22    11    12   ar
    23    12    13   ar
    24    12    40    1
    25    13    14   ar
    26    13    41    1
    27    14    15    1
    28    14    20   ar
    29    15    19    1
    30    15    16    2
    31    16    17    1
    32    17    18    1
    33    17    42    1
    34    18    19    2
    35    20    21   ar
    36    20    43    1
    37    21    44    1
    38    22    23    2
    39    22    24    1
    40    24    25    1
    41    24    27    1
    42    24    26    1
    43    26    27    1
    44    26    45    1
    45    26    46    1
    46    27    28    1
    47    27    29    1
    48    29    31    1
    49    29    30    1
    50    29    47    1
    51    30    31    1
    52    30    48    1
    53    30    49    1
    54    31    50    1
    55    31    51    1
@<TRIPOS>SUBSTRUCTURE
     1 ZINC000822206030        1 TEMP              0 ****  ****    0 ROOT


##########                                Name:    ZINC000750807956
##########                DOCK_Rotatable_Bonds:                  11
##########                         Heavy_Atoms:                  26
##########                    Molecular_Weight:             368.473
##########                DOCK_Rotatable_Bonds:                  11
##########                       Formal_Charge:        -8.12113e-07
##########                     HBond_Acceptors:                   7
##########                        HBond_Donors:                   1
##########                         Heavy_Atoms:                  26
##########                          Grid_Score:          -29.257868
##########                     Grid_vdw_energy:          -29.044764
##########                      Grid_es_energy:           -0.213104
##########           Internal_energy_repulsive:           75.509827

@<TRIPOS>MOLECULE
ZINC000750807956
 58 59 1 0 0
SMALL
USER_CHARGES


@<TRIPOS>ATOM
      1 C1        -14.4198   -2.7180   57.4325 C.3     1  ZINC000750807956   -0.1500
      2 C2        -13.0546   -3.3684   57.1992 C.3     1  ZINC000750807956    0.0700
      3 O3        -12.0132   -2.5176   57.7468 O.3     1  ZINC000750807956   -0.3600
      4 C4        -10.7620   -3.0034   57.7381 C.2     1  ZINC000750807956    0.4800
      5 O5        -10.5010   -3.9885   57.0889 O.2     1  ZINC000750807956   -0.4900
      6 C6         -9.6828   -2.3204   58.5379 C.3     1  ZINC000750807956    0.1600
      7 H7         -8.8526   -3.0093   58.6946 H       1  ZINC000750807956    0.1000
      8 C8        -10.2477   -1.8808   59.8923 C.3     1  ZINC000750807956   -0.1300
      9 C9         -9.1902   -1.0673   60.6419 C.3     1  ZINC000750807956   -0.1200
     10 C10        -8.8407    0.1850   59.8348 C.3     1  ZINC000750807956   -0.1400
     11 C11        -8.2598   -0.2312   58.4797 C.3     1  ZINC000750807956    0.1100
     12 N12        -9.2082   -1.1341   57.8126 N.am    1  ZINC000750807956   -0.6100
     13 C13        -9.6381   -0.8759   56.5617 C.2     1  ZINC000750807956    0.5100
     14 O14       -10.4210   -1.6288   56.0220 O.2     1  ZINC000750807956   -0.5000
     15 C15        -9.1463    0.3484   55.8335 C.3     1  ZINC000750807956   -0.1400
     16 C16        -9.7995    0.4167   54.4516 C.3     1  ZINC000750807956    0.2100
     17 H17        -9.6180   -0.5159   53.9175 H       1  ZINC000750807956    0.1000
     18 N18        -9.2261    1.5324   53.6951 N.am    1  ZINC000750807956   -0.7000
     19 C19        -8.3997    1.2896   52.6585 C.2     1  ZINC000750807956    0.6600
     20 O20        -8.1314    0.1451   52.3505 O.2     1  ZINC000750807956   -0.5600
     21 O21        -7.8714    2.3150   51.9641 O.3     1  ZINC000750807956   -0.3700
     22 C22        -6.7047    2.9652   52.5338 C.3     1  ZINC000750807956    0.1400
     23 C23        -7.0691    4.3909   52.9528 C.3     1  ZINC000750807956   -0.1800
     24 C24        -6.2297    2.1796   53.7578 C.3     1  ZINC000750807956   -0.1400
     25 C25        -5.5860    3.0103   51.4911 C.3     1  ZINC000750807956   -0.1800
     26 C26       -11.3065    0.6288   54.6098 C.3     1  ZINC000750807956   -0.1800
     27 C27       -11.9919    1.5845   53.6312 C.3     1  ZINC000750807956   -0.1700
     28 C28       -12.2168    0.0758   53.5116 C.3     1  ZINC000750807956   -0.1800
     29 H29       -14.4481   -1.7461   56.9398 H       1  ZINC000750807956    0.0600
     30 H30       -15.2015   -3.3568   57.0214 H       1  ZINC000750807956    0.0800
     31 H31       -14.5821   -2.5879   58.5025 H       1  ZINC000750807956    0.0700
     32 H32       -13.0263   -4.3403   57.6918 H       1  ZINC000750807956    0.0700
     33 H33       -12.8923   -3.4985   56.1292 H       1  ZINC000750807956    0.0600
     34 H34       -11.1346   -1.2670   59.7346 H       1  ZINC000750807956    0.0800
     35 H35       -10.5132   -2.7605   60.4786 H       1  ZINC000750807956    0.0800
     36 H36        -9.5809   -0.7741   61.6163 H       1  ZINC000750807956    0.0800
     37 H37        -8.2945   -1.6736   60.7775 H       1  ZINC000750807956    0.0700
     38 H38        -9.7408    0.7795   59.6776 H       1  ZINC000750807956    0.0700
     39 H39        -8.1047    0.7758   60.3801 H       1  ZINC000750807956    0.0800
     40 H40        -8.1015    0.6533   57.8628 H       1  ZINC000750807956    0.0900
     41 H41        -7.3120   -0.7477   58.6316 H       1  ZINC000750807956    0.0800
     42 H42        -9.4078    1.2398   56.4036 H       1  ZINC000750807956    0.1200
     43 H43        -8.0634    0.2936   55.7212 H       1  ZINC000750807956    0.1100
     44 H44        -9.4411    2.4460   53.9401 H       1  ZINC000750807956    0.4000
     45 H45        -7.8661    4.3588   53.6956 H       1  ZINC000750807956    0.0600
     46 H46        -6.1933    4.8789   53.3803 H       1  ZINC000750807956    0.0700
     47 H47        -7.4074    4.9506   52.0808 H       1  ZINC000750807956    0.0900
     48 H48        -5.9701    1.1639   53.4593 H       1  ZINC000750807956    0.0700
     49 H49        -5.3539    2.6676   54.1854 H       1  ZINC000750807956    0.0800
     50 H50        -7.0268    2.1474   54.5006 H       1  ZINC000750807956    0.0700
     51 H51        -5.9243    3.5700   50.6191 H       1  ZINC000750807956    0.0900
     52 H52        -4.7102    3.4983   51.9187 H       1  ZINC000750807956    0.0700
     53 H53        -5.3263    1.9946   51.1925 H       1  ZINC000750807956    0.0600
     54 H54       -11.6799    0.6030   55.6336 H       1  ZINC000750807956    0.1100
     55 H55       -12.8165    2.1877   54.0109 H       1  ZINC000750807956    0.0900
     56 H56       -11.3693    2.0620   52.8746 H       1  ZINC000750807956    0.0900
     57 H57       -11.7422   -0.4391   52.6763 H       1  ZINC000750807956    0.1200
     58 H58       -13.1894   -0.3134   53.8127 H       1  ZINC000750807956    0.0900
@<TRIPOS>BOND
     1     1     2    1
     2     1    29    1
     3     1    30    1
     4     1    31    1
     5     2     3    1
     6     2    32    1
     7     2    33    1
     8     3     4    1
     9     4     5    2
    10     4     6    1
    11     6     7    1
    12     6    12    1
    13     6     8    1
    14     8     9    1
    15     8    34    1
    16     8    35    1
    17     9    10    1
    18     9    36    1
    19     9    37    1
    20    10    11    1
    21    10    38    1
    22    10    39    1
    23    11    12    1
    24    11    40    1
    25    11    41    1
    26    12    13   am
    27    13    14    2
    28    13    15    1
    29    15    16    1
    30    15    42    1
    31    15    43    1
    32    16    17    1
    33    16    18    1
    34    16    26    1
    35    18    19   am
    36    18    44    1
    37    19    20    2
    38    19    21    1
    39    21    22    1
    40    22    23    1
    41    22    24    1
    42    22    25    1
    43    23    45    1
    44    23    46    1
    45    23    47    1
    46    24    48    1
    47    24    49    1
    48    24    50    1
    49    25    51    1
    50    25    52    1
    51    25    53    1
    52    26    28    1
    53    26    27    1
    54    26    54    1
    55    27    28    1
    56    27    55    1
    57    27    56    1
    58    28    57    1
    59    28    58    1
@<TRIPOS>SUBSTRUCTURE
     1 ZINC000750807956        1 TEMP              0 ****  ****    0 ROOT


##########                                Name:    ZINC001077846158
##########                DOCK_Rotatable_Bonds:                   7
##########                         Heavy_Atoms:                  24
##########                    Molecular_Weight:             350.442
##########                DOCK_Rotatable_Bonds:                   7
##########                       Formal_Charge:          -0.0600002
##########                     HBond_Acceptors:                   8
##########                        HBond_Donors:                   2
##########                         Heavy_Atoms:                  24
##########                          Grid_Score:          -29.253559
##########                     Grid_vdw_energy:          -29.812408
##########                      Grid_es_energy:            0.558850
##########           Internal_energy_repulsive:            8.024645

@<TRIPOS>MOLECULE
ZINC001077846158
 46 48 1 0 0
SMALL
USER_CHARGES


@<TRIPOS>ATOM
      1 C1        -10.5098    1.9690   64.0632 C.3     1  ZINC001077846158   -0.0700
      2 C2         -9.4121    1.0319   63.6295 C.2     1  ZINC001077846158    0.0100
      3 C3         -8.9523    0.8753   62.3771 C.2     1  ZINC001077846158   -0.0500
      4 C4         -9.4360    1.6017   61.1485 C.3     1  ZINC001077846158    0.1300
      5 N5         -8.9880    0.8843   59.9474 N.3     1  ZINC001077846158   -0.5100
      6 C6         -9.5366   -0.4956   59.9160 C.3     1  ZINC001077846158    0.0000
      7 C7         -9.4243   -0.8878   58.4212 C.3     1  ZINC001077846158    0.1000
      8 H8         -8.4114   -1.2119   58.1825 H       1  ZINC001077846158    0.0800
      9 O9        -10.3700   -1.9078   58.0937 O.3     1  ZINC001077846158   -0.5600
     10 C10        -9.7627    0.4322   57.6912 C.3     1  ZINC001077846158    0.1400
     11 H11       -10.8121    0.4434   57.3967 H       1  ZINC001077846158    0.1100
     12 N12        -8.9038    0.5980   56.5160 N.am    1  ZINC001077846158   -0.7000
     13 C13        -9.3289    0.1820   55.3066 C.2     1  ZINC001077846158    0.6000
     14 O14       -10.4251   -0.3322   55.1910 O.2     1  ZINC001077846158   -0.5300
     15 C15        -8.4663    0.3502   54.1250 C.2     1  ZINC001077846158    0.0100
     16 C16        -8.5033   -0.4799   53.0584 C.2     1  ZINC001077846158   -0.2300
     17 S17        -7.3582    0.0514   51.9057 S.3     1  ZINC001077846158    0.2300
     18 C18        -6.8963    1.3503   52.9135 C.2     1  ZINC001077846158    0.0300
     19 C19        -5.8412    2.3701   52.5698 C.3     1  ZINC001077846158   -0.0200
     20 C20        -4.8835    1.7829   51.5312 C.3     1  ZINC001077846158   -0.1500
     21 C21        -6.5092    3.6220   51.9975 C.3     1  ZINC001077846158   -0.1500
     22 N22        -7.5781    1.3405   54.0044 N.2     1  ZINC001077846158   -0.4500
     23 C23        -9.4846    1.5436   58.7201 C.3     1  ZINC001077846158    0.0300
     24 O24        -7.9770   -0.0532   62.4260 O.3     1  ZINC001077846158   -0.2100
     25 C25        -7.8538   -0.4497   63.6997 C.2     1  ZINC001077846158    0.1800
     26 N26        -8.7125    0.2059   64.4274 N.2     1  ZINC001077846158   -0.4900
     27 H27       -10.0797    2.9355   64.3259 H       1  ZINC001077846158    0.0800
     28 H28       -11.2212    2.0976   63.2475 H       1  ZINC001077846158    0.0700
     29 H29       -11.0223    1.5518   64.9300 H       1  ZINC001077846158    0.0700
     30 H30       -10.5250    1.6481   61.1590 H       1  ZINC001077846158    0.0600
     31 H31        -9.0293    2.6129   61.1406 H       1  ZINC001077846158    0.1100
     32 H32        -8.9362   -1.1624   60.5348 H       1  ZINC001077846158    0.0900
     33 H33       -10.5777   -0.5031   60.2386 H       1  ZINC001077846158    0.0600
     34 H34       -11.2914   -1.6171   58.1329 H       1  ZINC001077846158    0.3900
     35 H35        -8.0292    1.0070   56.6083 H       1  ZINC001077846158    0.4100
     36 H36        -9.1504   -1.3380   52.9521 H       1  ZINC001077846158    0.1900
     37 H37        -5.2846    2.6341   53.4691 H       1  ZINC001077846158    0.1000
     38 H38        -4.4076    0.8910   51.9390 H       1  ZINC001077846158    0.0600
     39 H39        -5.4401    1.5188   50.6320 H       1  ZINC001077846158    0.0600
     40 H40        -4.1204    2.5205   51.2827 H       1  ZINC001077846158    0.0700
     41 H41        -7.1914    4.0402   52.7374 H       1  ZINC001077846158    0.0600
     42 H42        -5.7460    4.3595   51.7489 H       1  ZINC001077846158    0.0700
     43 H43        -7.0658    3.3579   51.0983 H       1  ZINC001077846158    0.0600
     44 H44       -10.4039    2.0876   58.9369 H       1  ZINC001077846158    0.0600
     45 H45        -8.7282    2.2267   58.3336 H       1  ZINC001077846158    0.0900
     46 H46        -7.1549   -1.1881   64.0638 H       1  ZINC001077846158    0.2500
@<TRIPOS>BOND
     1     1     2    1
     2     1    27    1
     3     1    28    1
     4     1    29    1
     5     2    26    1
     6     2     3    2
     7     3     4    1
     8     3    24    1
     9     4     5    1
    10     4    30    1
    11     4    31    1
    12     5    23    1
    13     5     6    1
    14     6     7    1
    15     6    32    1
    16     6    33    1
    17     7     8    1
    18     7     9    1
    19     7    10    1
    20     9    34    1
    21    10    11    1
    22    10    12    1
    23    10    23    1
    24    12    13   am
    25    12    35    1
    26    13    14    2
    27    13    15    1
    28    15    22    1
    29    15    16    2
    30    16    17    1
    31    16    36    1
    32    17    18    1
    33    18    19    1
    34    18    22    2
    35    19    20    1
    36    19    21    1
    37    19    37    1
    38    20    38    1
    39    20    39    1
    40    20    40    1
    41    21    41    1
    42    21    42    1
    43    21    43    1
    44    23    44    1
    45    23    45    1
    46    24    25    1
    47    25    26    2
    48    25    46    1
@<TRIPOS>SUBSTRUCTURE
     1 ZINC001077846158        1 TEMP              0 ****  ****    0 ROOT


##########                                Name:    ZINC000618094467
##########                DOCK_Rotatable_Bonds:                   5
##########                         Heavy_Atoms:                  27
##########                    Molecular_Weight:             370.492
##########                DOCK_Rotatable_Bonds:                   5
##########                       Formal_Charge:                0.03
##########                     HBond_Acceptors:                   5
##########                        HBond_Donors:                   0
##########                         Heavy_Atoms:                  27
##########                          Grid_Score:          -29.235806
##########                     Grid_vdw_energy:          -28.201612
##########                      Grid_es_energy:           -1.034193
##########           Internal_energy_repulsive:          123.496605

@<TRIPOS>MOLECULE
ZINC000618094467
 57 59 1 0 0
SMALL
USER_CHARGES


@<TRIPOS>ATOM
      1 C1        -10.4360    0.8862   60.1255 C.3     1  ZINC000618094467   -0.1500
      2 C2         -9.0923    0.9731   59.3990 C.3     1  ZINC000618094467   -0.1000
      3 C3         -8.6990   -0.4136   58.8862 C.3     1  ZINC000618094467   -0.1100
      4 H4         -7.7195   -0.3610   58.4109 H       1  ZINC000618094467    0.1000
      5 C5         -8.6444   -1.3946   60.0592 C.3     1  ZINC000618094467   -0.1500
      6 C6         -9.7194   -0.8864   57.8832 C.2     1  ZINC000618094467    0.5200
      7 O7        -10.4723   -1.7941   58.1660 O.2     1  ZINC000618094467   -0.5000
      8 N8         -9.7955   -0.3004   56.6719 N.am    1  ZINC000618094467   -0.6100
      9 C9         -8.8997    0.7997   56.2993 C.3     1  ZINC000618094467    0.1400
     10 C10        -8.3784    0.5789   54.9015 C.ar    1  ZINC000618094467   -0.1000
     11 C11        -7.3330    1.3813   54.4659 C.ar    1  ZINC000618094467   -0.1100
     12 C12        -6.8199    1.2338   53.1934 C.ar    1  ZINC000618094467   -0.1200
     13 C13        -7.3523    0.2802   52.3462 C.ar    1  ZINC000618094467   -0.1100
     14 C14        -8.3886   -0.5206   52.7794 C.ar    1  ZINC000618094467   -0.1200
     15 C15        -8.9032   -0.3784   54.0621 C.ar    1  ZINC000618094467   -0.0600
     16 C16       -10.0155   -1.3059   54.4751 C.3     1  ZINC000618094467   -0.0800
     17 C17       -10.7768   -0.7429   55.6675 C.3     1  ZINC000618094467    0.1200
     18 H18       -11.3820    0.1066   55.3509 H       1  ZINC000618094467    0.1000
     19 C19       -11.6640   -1.8097   56.2557 C.2     1  ZINC000618094467    0.5500
     20 O20       -11.2691   -2.9540   56.3298 O.2     1  ZINC000618094467   -0.5200
     21 N21       -12.8964   -1.4921   56.6993 N.am    1  ZINC000618094467   -0.6100
     22 C22       -13.7658   -2.5237   57.2794 C.3     1  ZINC000618094467    0.1200
     23 C23       -14.1515   -2.1012   58.7027 C.3     1  ZINC000618094467   -0.1600
     24 H24       -14.9430   -2.7508   59.0766 H       1  ZINC000618094467    0.1100
     25 C25       -12.9294   -2.1991   59.6181 C.3     1  ZINC000618094467   -0.1400
     26 C26       -14.6437   -0.6712   58.6601 C.2     1  ZINC000618094467    0.3700
     27 O27       -15.7147   -0.3714   59.1308 O.2     1  ZINC000618094467   -0.4400
     28 C28       -13.7614    0.3743   58.0141 C.3     1  ZINC000618094467   -0.1600
     29 H29       -12.8582    0.5108   58.6088 H       1  ZINC000618094467    0.1100
     30 C30       -14.5195    1.6997   57.9172 C.3     1  ZINC000618094467   -0.1400
     31 C31       -13.3832   -0.1091   56.6136 C.3     1  ZINC000618094467    0.1400
     32 H32       -10.3503    0.1985   60.9669 H       1  ZINC000618094467    0.0500
     33 H33       -10.7161    1.8742   60.4908 H       1  ZINC000618094467    0.0600
     34 H34       -11.1988    0.5238   59.4363 H       1  ZINC000618094467    0.0600
     35 H35        -9.1780    1.6608   58.5576 H       1  ZINC000618094467    0.0700
     36 H36        -8.3295    1.3355   60.0882 H       1  ZINC000618094467    0.0700
     37 H37        -9.5791   -1.3453   60.6178 H       1  ZINC000618094467    0.0700
     38 H38        -8.5006   -2.4064   59.6802 H       1  ZINC000618094467    0.0700
     39 H39        -7.8147   -1.1309   60.7150 H       1  ZINC000618094467    0.0700
     40 H40        -9.4467    1.7418   56.3377 H       1  ZINC000618094467    0.0900
     41 H41        -8.0628    0.8382   56.9967 H       1  ZINC000618094467    0.1100
     42 H42        -6.9183    2.1273   55.1278 H       1  ZINC000618094467    0.1300
     43 H43        -6.0059    1.8608   52.8608 H       1  ZINC000618094467    0.1300
     44 H44        -6.9582    0.1626   51.3475 H       1  ZINC000618094467    0.1200
     45 H45        -8.8038   -1.2645   52.1156 H       1  ZINC000618094467    0.1200
     46 H46       -10.7023   -1.4367   53.6388 H       1  ZINC000618094467    0.0900
     47 H47        -9.5933   -2.2737   54.7459 H       1  ZINC000618094467    0.1000
     48 H48       -14.6652   -2.6272   56.6726 H       1  ZINC000618094467    0.0700
     49 H49       -13.2332   -3.4743   57.3122 H       1  ZINC000618094467    0.0900
     50 H50       -12.1765   -1.4792   59.2972 H       1  ZINC000618094467    0.0600
     51 H51       -13.2259   -1.9817   60.6443 H       1  ZINC000618094467    0.0600
     52 H52       -12.5154   -3.2060   59.5651 H       1  ZINC000618094467    0.0700
     53 H53       -14.8004    2.0314   58.9168 H       1  ZINC000618094467    0.0700
     54 H54       -13.8810    2.4504   57.4514 H       1  ZINC000618094467    0.0700
     55 H55       -15.4171    1.5617   57.3146 H       1  ZINC000618094467    0.0600
     56 H56       -12.6002    0.5300   56.2055 H       1  ZINC000618094467    0.1100
     57 H57       -14.2595   -0.0757   55.9663 H       1  ZINC000618094467    0.0700
@<TRIPOS>BOND
     1     1     2    1
     2     1    32    1
     3     1    33    1
     4     1    34    1
     5     2     3    1
     6     2    35    1
     7     2    36    1
     8     3     4    1
     9     3     5    1
    10     3     6    1
    11     5    37    1
    12     5    38    1
    13     5    39    1
    14     6     7    2
    15     6     8   am
    16     8    17    1
    17     8     9    1
    18     9    10    1
    19     9    40    1
    20     9    41    1
    21    10    15   ar
    22    10    11   ar
    23    11    12   ar
    24    11    42    1
    25    12    13   ar
    26    12    43    1
    27    13    14   ar
    28    13    44    1
    29    14    15   ar
    30    14    45    1
    31    15    16    1
    32    16    17    1
    33    16    46    1
    34    16    47    1
    35    17    18    1
    36    17    19    1
    37    19    20    2
    38    19    21   am
    39    21    31    1
    40    21    22    1
    41    22    23    1
    42    22    48    1
    43    22    49    1
    44    23    24    1
    45    23    25    1
    46    23    26    1
    47    25    50    1
    48    25    51    1
    49    25    52    1
    50    26    27    2
    51    26    28    1
    52    28    29    1
    53    28    30    1
    54    28    31    1
    55    30    53    1
    56    30    54    1
    57    30    55    1
    58    31    56    1
    59    31    57    1
@<TRIPOS>SUBSTRUCTURE
     1 ZINC000618094467        1 TEMP              0 ****  ****    0 ROOT


##########                                Name:    ZINC000906038034
##########                DOCK_Rotatable_Bonds:                   5
##########                         Heavy_Atoms:                  23
##########                    Molecular_Weight:             387.428
##########                DOCK_Rotatable_Bonds:                   5
##########                       Formal_Charge:         -0.00999987
##########                     HBond_Acceptors:                  12
##########                        HBond_Donors:                   0
##########                         Heavy_Atoms:                  23
##########                          Grid_Score:          -29.217585
##########                     Grid_vdw_energy:          -26.234983
##########                      Grid_es_energy:           -2.982601
##########           Internal_energy_repulsive:            4.681113

@<TRIPOS>MOLECULE
ZINC000906038034
 35 36 1 0 0
SMALL
USER_CHARGES


@<TRIPOS>ATOM
      1 C1         -6.5571    1.6145   51.6868 C.3     1  ZINC000906038034    0.1000
      2 N2         -7.1106    1.3413   53.0155 N.pl3   1  ZINC000906038034   -0.3700
      3 C3         -6.6719    1.8667   54.1799 C.2     1  ZINC000906038034    0.0600
      4 C4         -7.4371    1.3717   55.1762 C.2     1  ZINC000906038034   -0.2500
      5 C5         -8.3880    0.5040   54.6004 C.2     1  ZINC000906038034    0.1200
      6 C6         -9.4273   -0.2553   55.3288 C.2     1  ZINC000906038034    0.1500
      7 N7         -9.6768   -0.1628   56.6035 N.2     1  ZINC000906038034   -0.4300
      8 C8        -10.6415   -0.9171   57.0792 C.2     1  ZINC000906038034    0.0600
      9 C9        -11.0259   -0.9005   58.5362 C.3     1  ZINC000906038034   -0.5300
     10 S10        -9.6019   -1.3997   59.5430 S.o2    1  ZINC000906038034    2.4200
     11 O11       -10.0805   -1.9619   60.7571 O.2     1  ZINC000906038034   -0.9100
     12 O12        -8.7157   -2.1565   58.7299 O.2     1  ZINC000906038034   -0.9200
     13 C13        -8.8255    0.1976   59.9122 C.3     1  ZINC000906038034   -0.6100
     14 C14        -9.6570    0.9386   60.9612 C.3     1  ZINC000906038034   -0.4500
     15 S15        -8.8024    0.8825   62.5603 S.o     1  ZINC000906038034    1.3300
     16 O16        -8.7074   -0.4656   62.9995 O.2     1  ZINC000906038034   -0.7600
     17 C17        -9.9236    1.7971   63.6544 C.3     1  ZINC000906038034    0.1200
     18 F18       -11.1678    1.1581   63.6870 F       1  ZINC000906038034   -0.1900
     19 F19        -9.3859    1.8368   64.9453 F       1  ZINC000906038034   -0.1700
     20 F20       -10.0819    3.1017   63.1748 F       1  ZINC000906038034   -0.1600
     21 C21       -11.2613   -1.6999   56.1906 C.2     1  ZINC000906038034   -0.2300
     22 S22       -10.5317   -1.4246   54.6099 S.3     1  ZINC000906038034    0.1600
     23 N23        -8.1901    0.4944   53.2974 N.2     1  ZINC000906038034   -0.2400
     24 H24        -7.0681    2.4724   51.2498 H       1  ZINC000906038034    0.0800
     25 H25        -5.4925    1.8317   51.7744 H       1  ZINC000906038034    0.0900
     26 H26        -6.6988    0.7429   51.0479 H       1  ZINC000906038034    0.0900
     27 H27        -5.8524    2.5609   54.2941 H       1  ZINC000906038034    0.1800
     28 H28        -7.3382    1.5994   56.2273 H       1  ZINC000906038034    0.1600
     29 H29       -11.3358    0.1056   58.8188 H       1  ZINC000906038034    0.1500
     30 H30       -11.8497   -1.5945   58.7027 H       1  ZINC000906038034    0.1600
     31 H31        -7.8191    0.0323   60.2968 H       1  ZINC000906038034    0.1500
     32 H32        -8.7729    0.7951   59.0020 H       1  ZINC000906038034    0.1500
     33 H33        -9.7870    1.9765   60.6549 H       1  ZINC000906038034    0.1600
     34 H34       -10.6331    0.4623   61.0539 H       1  ZINC000906038034    0.1300
     35 H35       -12.0722   -2.3807   56.4036 H       1  ZINC000906038034    0.1900
@<TRIPOS>BOND
     1     1     2    1
     2     1    24    1
     3     1    25    1
     4     1    26    1
     5     2    23    1
     6     2     3    1
     7     3     4    2
     8     3    27    1
     9     4     5    1
    10     4    28    1
    11     5     6    1
    12     5    23    2
    13     6    22    1
    14     6     7    2
    15     7     8    1
    16     8     9    1
    17     8    21    2
    18     9    10    1
    19     9    29    1
    20     9    30    1
    21    10    11    2
    22    10    12    2
    23    10    13    1
    24    13    14    1
    25    13    31    1
    26    13    32    1
    27    14    15    1
    28    14    33    1
    29    14    34    1
    30    15    16    2
    31    15    17    1
    32    17    18    1
    33    17    19    1
    34    17    20    1
    35    21    22    1
    36    21    35    1
@<TRIPOS>SUBSTRUCTURE
     1 ZINC000906038034        1 TEMP              0 ****  ****    0 ROOT


##########                                Name:    ZINC000962855438
##########                DOCK_Rotatable_Bonds:                   7
##########                         Heavy_Atoms:                  27
##########                    Molecular_Weight:             370.448
##########                DOCK_Rotatable_Bonds:                   7
##########                       Formal_Charge:           0.0300005
##########                     HBond_Acceptors:                   6
##########                        HBond_Donors:                   2
##########                         Heavy_Atoms:                  27
##########                          Grid_Score:          -29.215429
##########                     Grid_vdw_energy:          -28.823074
##########                      Grid_es_energy:           -0.392354
##########           Internal_energy_repulsive:           11.599892

@<TRIPOS>MOLECULE
ZINC000962855438
 53 56 1 0 0
SMALL
USER_CHARGES


@<TRIPOS>ATOM
      1 C1        -16.8493   -1.9044   56.2449 C.3     1  ZINC000962855438   -0.1100
      2 C2        -15.4170   -1.4380   56.1972 C.2     1  ZINC000962855438   -0.1700
      3 C3        -14.4164   -2.0428   57.0898 C.2     1  ZINC000962855438    0.5600
      4 O4        -14.7451   -2.9188   57.8667 O.2     1  ZINC000962855438   -0.5400
      5 N5        -13.1354   -1.6263   57.0466 N.am    1  ZINC000962855438   -0.7100
      6 C6        -12.1392   -2.2275   57.9368 C.3     1  ZINC000962855438    0.1500
      7 H7        -12.5868   -2.5016   58.8920 H       1  ZINC000962855438    0.1200
      8 C8        -10.9323   -1.2781   58.1411 C.3     1  ZINC000962855438    0.1000
      9 N9         -9.8092   -2.1659   58.4930 N.am    1  ZINC000962855438   -0.6100
     10 C10        -8.7117   -1.8064   59.1879 C.2     1  ZINC000962855438    0.5800
     11 O11        -7.8448   -2.6262   59.4221 O.2     1  ZINC000962855438   -0.5200
     12 C12        -8.5624   -0.4182   59.6644 C.ar    1  ZINC000962855438   -0.1500
     13 C13        -8.8906   -0.0922   60.9804 C.ar    1  ZINC000962855438   -0.0600
     14 C14        -8.7529    1.2041   61.4282 C.ar    1  ZINC000962855438   -0.1500
     15 C15        -8.2907    2.1882   60.5687 C.ar    1  ZINC000962855438   -0.0500
     16 C16        -7.9666    1.8780   59.2668 C.ar    1  ZINC000962855438   -0.1800
     17 C17        -8.0832    0.5778   58.7941 C.ar    1  ZINC000962855438    0.1600
     18 O18        -7.6925    0.4874   57.4960 O.3     1  ZINC000962855438   -0.2800
     19 C19        -7.7136    1.7967   56.9022 C.3     1  ZINC000962855438    0.0700
     20 H20        -8.6854    2.0014   56.4528 H       1  ZINC000962855438    0.0900
     21 C21        -6.5981    1.9396   55.8649 C.3     1  ZINC000962855438   -0.1500
     22 C22        -7.4581    2.7246   58.1155 C.3     1  ZINC000962855438   -0.1100
     23 C23       -10.0850   -3.5086   57.9613 C.3     1  ZINC000962855438    0.0700
     24 C24       -11.4629   -3.4531   57.2675 C.3     1  ZINC000962855438    0.0900
     25 H25       -12.0303   -4.3628   57.4636 H       1  ZINC000962855438    0.0900
     26 O26       -11.3130   -3.2461   55.8615 O.3     1  ZINC000962855438   -0.5600
     27 C27       -15.0577   -0.4797   55.3479 C.2     1  ZINC000962855438   -0.0600
     28 C28       -15.7475    0.3743   54.3051 C.3     1  ZINC000962855438   -0.1000
     29 C29       -14.3855    0.4948   53.6037 C.3     1  ZINC000962855438   -0.1400
     30 C30       -13.7778    0.2489   54.9969 C.3     1  ZINC000962855438   -0.1100
     31 H31       -17.4019   -1.3068   56.9699 H       1  ZINC000962855438    0.0700
     32 H32       -17.3015   -1.7902   55.2597 H       1  ZINC000962855438    0.0700
     33 H33       -16.8802   -2.9533   56.5396 H       1  ZINC000962855438    0.0700
     34 H34       -12.8730   -0.9284   56.4261 H       1  ZINC000962855438    0.4100
     35 H35       -10.7144   -0.7378   57.2199 H       1  ZINC000962855438    0.0800
     36 H36       -11.1324   -0.5794   58.9534 H       1  ZINC000962855438    0.0900
     37 H37        -9.2538   -0.8575   61.6501 H       1  ZINC000962855438    0.1400
     38 H38        -9.0056    1.4529   62.4483 H       1  ZINC000962855438    0.1400
     39 H39        -8.1847    3.2034   60.9215 H       1  ZINC000962855438    0.1300
     40 H40        -6.7485    1.2125   55.0670 H       1  ZINC000962855438    0.0700
     41 H41        -6.6170    2.9463   55.4474 H       1  ZINC000962855438    0.0800
     42 H42        -5.6339    1.7621   56.3414 H       1  ZINC000962855438    0.0700
     43 H43        -8.0346    3.6456   58.0299 H       1  ZINC000962855438    0.1000
     44 H44        -6.3952    2.9405   58.2238 H       1  ZINC000962855438    0.1000
     45 H45        -9.3170   -3.7864   57.2394 H       1  ZINC000962855438    0.0800
     46 H46       -10.1099   -4.2321   58.7761 H       1  ZINC000962855438    0.0800
     47 H47       -12.1494   -3.1402   55.3881 H       1  ZINC000962855438    0.3900
     48 H48       -16.4918   -0.1674   53.7213 H       1  ZINC000962855438    0.0900
     49 H49       -16.1220    1.3206   54.6952 H       1  ZINC000962855438    0.1000
     50 H50       -14.1878   -0.3013   52.8859 H       1  ZINC000962855438    0.0900
     51 H51       -14.1814    1.4890   53.2062 H       1  ZINC000962855438    0.0800
     52 H52       -13.6200    1.1621   55.5708 H       1  ZINC000962855438    0.1000
     53 H53       -12.9010   -0.3984   54.9817 H       1  ZINC000962855438    0.0800
@<TRIPOS>BOND
     1     1     2    1
     2     1    31    1
     3     1    32    1
     4     1    33    1
     5     2     3    1
     6     2    27    2
     7     3     4    2
     8     3     5   am
     9     5     6    1
    10     5    34    1
    11     6     7    1
    12     6    24    1
    13     6     8    1
    14     8     9    1
    15     8    35    1
    16     8    36    1
    17     9    10   am
    18     9    23    1
    19    10    11    2
    20    10    12    1
    21    12    17   ar
    22    12    13   ar
    23    13    14   ar
    24    13    37    1
    25    14    15   ar
    26    14    38    1
    27    15    16   ar
    28    15    39    1
    29    16    22    1
    30    16    17   ar
    31    17    18    1
    32    18    19    1
    33    19    20    1
    34    19    21    1
    35    19    22    1
    36    21    40    1
    37    21    41    1
    38    21    42    1
    39    22    43    1
    40    22    44    1
    41    23    24    1
    42    23    45    1
    43    23    46    1
    44    24    25    1
    45    24    26    1
    46    26    47    1
    47    27    30    1
    48    27    28    1
    49    28    29    1
    50    28    48    1
    51    28    49    1
    52    29    30    1
    53    29    50    1
    54    29    51    1
    55    30    52    1
    56    30    53    1
@<TRIPOS>SUBSTRUCTURE
     1 ZINC000962855438        1 TEMP              0 ****  ****    0 ROOT


##########                                Name:    ZINC000864730443
##########                DOCK_Rotatable_Bonds:                  10
##########                         Heavy_Atoms:                  25
##########                    Molecular_Weight:             356.462
##########                DOCK_Rotatable_Bonds:                  10
##########                       Formal_Charge:           0.0299988
##########                     HBond_Acceptors:                   7
##########                        HBond_Donors:                   2
##########                         Heavy_Atoms:                  25
##########                          Grid_Score:          -29.202244
##########                     Grid_vdw_energy:          -27.443501
##########                      Grid_es_energy:           -1.758744
##########           Internal_energy_repulsive:           22.333744

@<TRIPOS>MOLECULE
ZINC000864730443
 57 58 1 0 0
SMALL
USER_CHARGES


@<TRIPOS>ATOM
      1 C1        -10.5480    2.9597   64.0586 C.3     1  ZINC000864730443   -0.1800
      2 C2        -10.7240    1.9562   62.9172 C.3     1  ZINC000864730443    0.1400
      3 C3        -10.5907    2.6806   61.5762 C.3     1  ZINC000864730443   -0.1800
      4 C4         -9.6491    0.8725   63.0205 C.3     1  ZINC000864730443   -0.1400
      5 O5        -12.0380    1.3450   63.0086 O.3     1  ZINC000864730443   -0.3600
      6 C6        -12.7825    1.3255   61.8869 C.2     1  ZINC000864730443    0.6500
      7 O7        -13.5497    2.2378   61.6511 O.2     1  ZINC000864730443   -0.5700
      8 N8        -12.6767    0.2942   61.0258 N.am    1  ZINC000864730443   -0.7100
      9 C9        -13.4856    0.2739   59.8044 C.3     1  ZINC000864730443    0.1500
     10 C10       -13.6419   -1.1691   59.3203 C.3     1  ZINC000864730443   -0.1300
     11 C11       -12.3193   -1.8829   59.4291 C.2     1  ZINC000864730443    0.5300
     12 O12       -12.0156   -2.4429   60.4613 O.2     1  ZINC000864730443   -0.5300
     13 N13       -11.4737   -1.8990   58.3798 N.am    1  ZINC000864730443   -0.7200
     14 C14       -10.1879   -2.5930   58.4857 C.3     1  ZINC000864730443    0.1200
     15 C15        -9.1712   -1.6808   59.1750 C.3     1  ZINC000864730443   -0.1300
     16 C16        -9.1967   -0.2998   58.5169 C.3     1  ZINC000864730443    0.0800
     17 H17       -10.1502    0.1924   58.7085 H       1  ZINC000864730443    0.0800
     18 C18        -8.0274    0.5692   59.0448 C.3     1  ZINC000864730443   -0.1500
     19 C19        -7.8447    1.5646   57.8668 C.3     1  ZINC000864730443   -0.1600
     20 C20        -8.1825    0.6879   56.6417 C.3     1  ZINC000864730443    0.0500
     21 O21        -8.9712   -0.4168   57.1031 O.3     1  ZINC000864730443   -0.3800
     22 C22       -14.6854   -1.8876   60.1812 C.3     1  ZINC000864730443   -0.1000
     23 C23       -14.8900   -3.3055   59.6388 C.3     1  ZINC000864730443   -0.1600
     24 C24       -15.3059   -3.2256   58.1676 C.3     1  ZINC000864730443    0.0600
     25 O25       -14.3072   -2.5189   57.4293 O.3     1  ZINC000864730443   -0.3700
     26 C26       -14.1061   -1.1716   57.8614 C.3     1  ZINC000864730443    0.0800
     27 H27       -11.3137    3.7319   63.9849 H       1  ZINC000864730443    0.0900
     28 H28       -10.6429    2.4438   65.0140 H       1  ZINC000864730443    0.0600
     29 H29        -9.5617    3.4186   63.9899 H       1  ZINC000864730443    0.0700
     30 H30        -9.6044    3.1394   61.5076 H       1  ZINC000864730443    0.0700
     31 H31       -10.7161    1.9656   60.7630 H       1  ZINC000864730443    0.0600
     32 H32       -11.3566    3.4527   61.5025 H       1  ZINC000864730443    0.0900
     33 H33        -9.7440    0.3564   63.9760 H       1  ZINC000864730443    0.0700
     34 H34        -9.7745    0.1575   62.2073 H       1  ZINC000864730443    0.0700
     35 H35        -8.6627    1.3313   62.9519 H       1  ZINC000864730443    0.0800
     36 H36       -12.0652   -0.4347   61.2146 H       1  ZINC000864730443    0.4100
     37 H37       -14.4688    0.6958   60.0127 H       1  ZINC000864730443    0.0900
     38 H38       -12.9927    0.8647   59.0324 H       1  ZINC000864730443    0.0800
     39 H39       -11.7166   -1.4511   57.5543 H       1  ZINC000864730443    0.4000
     40 H40       -10.3139   -3.5040   59.0707 H       1  ZINC000864730443    0.0700
     41 H41        -9.8296   -2.8483   57.4884 H       1  ZINC000864730443    0.0700
     42 H42        -9.4260   -1.5851   60.2305 H       1  ZINC000864730443    0.0800
     43 H43        -8.1741   -2.1105   59.0794 H       1  ZINC000864730443    0.0800
     44 H44        -8.3076    1.0907   59.9600 H       1  ZINC000864730443    0.0900
     45 H45        -7.1295   -0.0301   59.1956 H       1  ZINC000864730443    0.0800
     46 H46        -8.5419    2.3981   57.9515 H       1  ZINC000864730443    0.0800
     47 H47        -6.8160    1.9215   57.8165 H       1  ZINC000864730443    0.0800
     48 H48        -8.7519    1.2696   55.9167 H       1  ZINC000864730443    0.0700
     49 H49        -7.2634    0.3220   56.1842 H       1  ZINC000864730443    0.0700
     50 H50       -14.3350   -1.9386   61.2121 H       1  ZINC000864730443    0.0800
     51 H51       -15.6286   -1.3425   60.1418 H       1  ZINC000864730443    0.0800
     52 H52       -13.9591   -3.8659   59.7242 H       1  ZINC000864730443    0.0900
     53 H53       -15.6711   -3.8054   60.2116 H       1  ZINC000864730443    0.0800
     54 H54       -15.4114   -4.2327   57.7645 H       1  ZINC000864730443    0.1000
     55 H55       -16.2574   -2.7000   58.0870 H       1  ZINC000864730443    0.0500
     56 H56       -15.0420   -0.6193   57.7767 H       1  ZINC000864730443    0.0700
     57 H57       -13.3473   -0.6992   57.2376 H       1  ZINC000864730443    0.1000
@<TRIPOS>BOND
     1     1     2    1
     2     1    27    1
     3     1    28    1
     4     1    29    1
     5     2     3    1
     6     2     4    1
     7     2     5    1
     8     3    30    1
     9     3    31    1
    10     3    32    1
    11     4    33    1
    12     4    34    1
    13     4    35    1
    14     5     6    1
    15     6     7    2
    16     6     8   am
    17     8     9    1
    18     8    36    1
    19     9    10    1
    20     9    37    1
    21     9    38    1
    22    10    26    1
    23    10    11    1
    24    10    22    1
    25    11    12    2
    26    11    13   am
    27    13    14    1
    28    13    39    1
    29    14    15    1
    30    14    40    1
    31    14    41    1
    32    15    16    1
    33    15    42    1
    34    15    43    1
    35    16    17    1
    36    16    21    1
    37    16    18    1
    38    18    19    1
    39    18    44    1
    40    18    45    1
    41    19    20    1
    42    19    46    1
    43    19    47    1
    44    20    21    1
    45    20    48    1
    46    20    49    1
    47    22    23    1
    48    22    50    1
    49    22    51    1
    50    23    24    1
    51    23    52    1
    52    23    53    1
    53    24    25    1
    54    24    54    1
    55    24    55    1
    56    25    26    1
    57    26    56    1
    58    26    57    1
@<TRIPOS>SUBSTRUCTURE
     1 ZINC000864730443        1 TEMP              0 ****  ****    0 ROOT


##########                                Name:    ZINC000546115054
##########                DOCK_Rotatable_Bonds:                  10
##########                         Heavy_Atoms:                  26
##########                    Molecular_Weight:             363.457
##########                DOCK_Rotatable_Bonds:                  10
##########                       Formal_Charge:        -4.39584e-07
##########                     HBond_Acceptors:                   7
##########                        HBond_Donors:                   2
##########                         Heavy_Atoms:                  26
##########                          Grid_Score:          -29.201654
##########                     Grid_vdw_energy:          -28.466513
##########                      Grid_es_energy:           -0.735143
##########           Internal_energy_repulsive:           53.546482

@<TRIPOS>MOLECULE
ZINC000546115054
 55 56 1 0 0
SMALL
USER_CHARGES


@<TRIPOS>ATOM
      1 C1        -10.7812   -0.7838   53.6589 C.3     1  ZINC000546115054   -0.1500
      2 C2         -9.4898   -0.4504   52.9091 C.3     1  ZINC000546115054    0.0600
      3 O3         -8.4377   -0.2250   53.8496 O.3     1  ZINC000546115054   -0.3700
      4 C4         -8.0247    1.1398   53.9436 C.3     1  ZINC000546115054    0.0500
      5 H5         -8.8520    1.7909   53.6612 H       1  ZINC000546115054    0.0700
      6 C6         -6.8398    1.3817   53.0049 C.3     1  ZINC000546115054    0.0400
      7 O7         -6.3919    2.7316   53.1434 O.3     1  ZINC000546115054   -0.3700
      8 C8         -5.9356    3.0632   54.4564 C.3     1  ZINC000546115054    0.0600
      9 C9         -7.0841    2.8888   55.4534 C.3     1  ZINC000546115054   -0.1600
     10 C10        -7.5990    1.4478   55.3824 C.3     1  ZINC000546115054    0.1700
     11 H11        -6.8062    0.7621   55.6813 H       1  ZINC000546115054    0.1000
     12 N12        -8.7459    1.2924   56.2807 N.am    1  ZINC000546115054   -0.7300
     13 C13        -8.5568    0.8795   57.5497 C.2     1  ZINC000546115054    0.7200
     14 O14        -7.4346    0.6347   57.9485 O.2     1  ZINC000546115054   -0.5900
     15 N15        -9.6118    0.7381   58.3765 N.am    1  ZINC000546115054   -0.7200
     16 C16        -9.4064    0.2876   59.7554 C.3     1  ZINC000546115054    0.1600
     17 H17        -8.4625   -0.2530   59.8241 H       1  ZINC000546115054    0.1200
     18 C18        -9.3688    1.5002   60.6877 C.3     1  ZINC000546115054   -0.1000
     19 C19        -9.2035    1.0342   62.1113 C.ar    1  ZINC000546115054   -0.0800
     20 C20        -9.9199    1.6424   63.1252 C.ar    1  ZINC000546115054   -0.1100
     21 C21        -9.7683    1.2149   64.4309 C.ar    1  ZINC000546115054   -0.1200
     22 C22        -8.9006    0.1792   64.7230 C.ar    1  ZINC000546115054   -0.1200
     23 C23        -8.1849   -0.4295   63.7090 C.ar    1  ZINC000546115054   -0.1200
     24 C24        -8.3397   -0.0050   62.4026 C.ar    1  ZINC000546115054   -0.1100
     25 C25       -10.5373   -0.6224   60.1602 C.2     1  ZINC000546115054    0.5000
     26 O26       -10.3256   -1.5615   60.8978 O.2     1  ZINC000546115054   -0.5200
     27 N27       -11.7841   -0.3926   59.7026 N.am    1  ZINC000546115054   -0.6200
     28 C28       -12.8838   -1.2763   60.0975 C.3     1  ZINC000546115054    0.0800
     29 C29       -12.0394    0.7408   58.8102 C.3     1  ZINC000546115054    0.0700
     30 H30       -11.5837   -0.9557   52.9416 H       1  ZINC000546115054    0.0700
     31 H31       -10.6316   -1.6814   54.2588 H       1  ZINC000546115054    0.0600
     32 H32       -11.0482    0.0483   54.3104 H       1  ZINC000546115054    0.0600
     33 H33        -9.2228   -1.2825   52.2576 H       1  ZINC000546115054    0.0500
     34 H34        -9.6394    0.4473   52.3092 H       1  ZINC000546115054    0.0500
     35 H35        -6.0280    0.7012   53.2614 H       1  ZINC000546115054    0.0600
     36 H36        -7.1502    1.2056   51.9749 H       1  ZINC000546115054    0.1000
     37 H37        -5.1118    2.4046   54.7320 H       1  ZINC000546115054    0.0600
     38 H38        -5.5945    4.0982   54.4721 H       1  ZINC000546115054    0.1000
     39 H39        -6.7264    3.0985   56.4614 H       1  ZINC000546115054    0.0900
     40 H40        -7.8920    3.5760   55.2022 H       1  ZINC000546115054    0.0800
     41 H41        -9.6412    1.4865   55.9621 H       1  ZINC000546115054    0.3900
     42 H42       -10.5068    0.9346   58.0586 H       1  ZINC000546115054    0.4000
     43 H43        -8.5305    2.1416   60.4158 H       1  ZINC000546115054    0.0900
     44 H44       -10.2996    2.0594   60.5942 H       1  ZINC000546115054    0.1100
     45 H45       -10.5978    2.4515   62.8970 H       1  ZINC000546115054    0.1200
     46 H46       -10.3274    1.6905   65.2232 H       1  ZINC000546115054    0.1200
     47 H47        -8.7816   -0.1542   65.7433 H       1  ZINC000546115054    0.1200
     48 H48        -7.5068   -1.2385   63.9372 H       1  ZINC000546115054    0.1200
     49 H49        -7.7805   -0.4806   61.6104 H       1  ZINC000546115054    0.1200
     50 H50       -13.3450   -0.8970   61.0095 H       1  ZINC000546115054    0.0600
     51 H51       -13.6271   -1.3095   59.3010 H       1  ZINC000546115054    0.0700
     52 H52       -12.4973   -2.2797   60.2760 H       1  ZINC000546115054    0.0800
     53 H53       -11.9143    0.4235   57.7749 H       1  ZINC000546115054    0.0600
     54 H54       -13.0580    1.0988   58.9599 H       1  ZINC000546115054    0.0800
     55 H55       -11.3360    1.5434   59.0317 H       1  ZINC000546115054    0.0700
@<TRIPOS>BOND
     1     1     2    1
     2     1    30    1
     3     1    31    1
     4     1    32    1
     5     2     3    1
     6     2    33    1
     7     2    34    1
     8     3     4    1
     9     4     5    1
    10     4    10    1
    11     4     6    1
    12     6     7    1
    13     6    35    1
    14     6    36    1
    15     7     8    1
    16     8     9    1
    17     8    37    1
    18     8    38    1
    19     9    10    1
    20     9    39    1
    21     9    40    1
    22    10    11    1
    23    10    12    1
    24    12    13   am
    25    12    41    1
    26    13    14    2
    27    13    15   am
    28    15    16    1
    29    15    42    1
    30    16    17    1
    31    16    18    1
    32    16    25    1
    33    18    19    1
    34    18    43    1
    35    18    44    1
    36    19    24   ar
    37    19    20   ar
    38    20    21   ar
    39    20    45    1
    40    21    22   ar
    41    21    46    1
    42    22    23   ar
    43    22    47    1
    44    23    24   ar
    45    23    48    1
    46    24    49    1
    47    25    26    2
    48    25    27   am
    49    27    28    1
    50    27    29    1
    51    28    50    1
    52    28    51    1
    53    28    52    1
    54    29    53    1
    55    29    54    1
    56    29    55    1
@<TRIPOS>SUBSTRUCTURE
     1 ZINC000546115054        1 TEMP              0 ****  ****    0 ROOT


##########                                Name:    ZINC001085817863
##########                DOCK_Rotatable_Bonds:                   7
##########                         Heavy_Atoms:                  24
##########                    Molecular_Weight:             326.442
##########                DOCK_Rotatable_Bonds:                   7
##########                       Formal_Charge:           0.0299998
##########                     HBond_Acceptors:                   5
##########                        HBond_Donors:                   0
##########                         Heavy_Atoms:                  24
##########                          Grid_Score:          -29.193130
##########                     Grid_vdw_energy:          -27.471664
##########                      Grid_es_energy:           -1.721466
##########           Internal_energy_repulsive:           11.210969

@<TRIPOS>MOLECULE
ZINC001085817863
 50 52 1 0 0
SMALL
USER_CHARGES


@<TRIPOS>ATOM
      1 C1         -8.7669    1.7047   55.1477 C.3     1  ZINC001085817863   -0.1400
      2 C2         -7.8766    0.8813   56.0806 C.3     1  ZINC001085817863   -0.0700
      3 C3         -7.6735    1.6307   57.3722 C.2     1  ZINC001085817863    0.1100
      4 C4         -8.4960    1.5811   58.4638 C.2     1  ZINC001085817863   -0.2400
      5 C5         -9.7340    0.7961   58.6043 C.2     1  ZINC001085817863    0.6000
      6 O6        -10.7744    1.2111   58.1304 O.2     1  ZINC001085817863   -0.5300
      7 N7         -9.7141   -0.3824   59.2580 N.am    1  ZINC001085817863   -0.6100
      8 C8         -8.4610   -0.8824   59.8287 C.3     1  ZINC001085817863    0.0800
      9 C9        -10.9456   -1.1634   59.3977 C.3     1  ZINC001085817863    0.1300
     10 C10       -11.1695   -1.9936   58.1322 C.3     1  ZINC001085817863    0.0100
     11 H11       -11.4988   -1.3911   57.2857 H       1  ZINC001085817863    0.0800
     12 C12        -9.9981   -2.9282   57.7987 C.3     1  ZINC001085817863   -0.1400
     13 C13       -11.1149   -3.9073   57.4106 C.3     1  ZINC001085817863    0.0000
     14 N14       -11.9962   -3.1943   58.3558 N.3     1  ZINC001085817863   -0.4400
     15 C15       -13.3419   -3.0211   57.7927 C.3     1  ZINC001085817863    0.0700
     16 C16       -14.1660   -2.1615   58.7161 C.ar    1  ZINC001085817863   -0.1300
     17 C17       -14.4688   -0.8528   58.3731 C.ar    1  ZINC001085817863   -0.0700
     18 C18       -15.2304   -0.0992   59.2534 C.ar    1  ZINC001085817863   -0.1700
     19 C19       -15.6593   -0.6734   60.4348 C.ar    1  ZINC001085817863    0.1000
     20 N20       -15.3522   -1.9220   60.7285 N.ar    1  ZINC001085817863   -0.4800
     21 C21       -14.6345   -2.6697   59.9132 C.ar    1  ZINC001085817863    0.1200
     22 C22        -7.8955    2.4673   59.4667 C.2     1  ZINC001085817863   -0.1900
     23 C23        -6.7800    2.9697   58.9080 C.2     1  ZINC001085817863   -0.0200
     24 N24        -6.6483    2.4585   57.6498 N.pl3   1  ZINC001085817863   -0.4400
     25 C25        -5.5535    2.7732   56.7287 C.3     1  ZINC001085817863    0.0600
     26 H26        -8.9137    1.1628   54.2135 H       1  ZINC001085817863    0.0600
     27 H27        -9.7322    1.8759   55.6241 H       1  ZINC001085817863    0.0500
     28 H28        -8.2889    2.6624   54.9409 H       1  ZINC001085817863    0.0600
     29 H29        -8.3545   -0.0762   56.2874 H       1  ZINC001085817863    0.0600
     30 H30        -6.9113    0.7102   55.6042 H       1  ZINC001085817863    0.1100
     31 H31        -8.0718   -0.1566   60.5428 H       1  ZINC001085817863    0.0700
     32 H32        -8.6452   -1.8290   60.3367 H       1  ZINC001085817863    0.0700
     33 H33        -7.7333   -1.0336   59.0313 H       1  ZINC001085817863    0.0600
     34 H34       -10.8590   -1.8276   60.2575 H       1  ZINC001085817863    0.0800
     35 H35       -11.7893   -0.4886   59.5435 H       1  ZINC001085817863    0.1000
     36 H36        -9.3858   -2.5947   56.9609 H       1  ZINC001085817863    0.0800
     37 H37        -9.4139   -3.2382   58.6652 H       1  ZINC001085817863    0.1000
     38 H38       -11.4305   -3.8162   56.3713 H       1  ZINC001085817863    0.0700
     39 H39       -10.9092   -4.9376   57.7006 H       1  ZINC001085817863    0.0800
     40 H40       -13.2685   -2.5400   56.8173 H       1  ZINC001085817863    0.0900
     41 H41       -13.8177   -3.9956   57.6823 H       1  ZINC001085817863    0.0500
     42 H42       -14.1195   -0.4302   57.4426 H       1  ZINC001085817863    0.1300
     43 H43       -15.4849    0.9239   59.0188 H       1  ZINC001085817863    0.1300
     44 H44       -16.2526   -0.0931   61.1259 H       1  ZINC001085817863    0.1600
     45 H45       -14.4029   -3.6881   60.1878 H       1  ZINC001085817863    0.1500
     46 H46        -8.2739    2.6752   60.4566 H       1  ZINC001085817863    0.1600
     47 H47        -6.0979    3.6615   59.3796 H       1  ZINC001085817863    0.1600
     48 H48        -4.7387    2.0646   56.8772 H       1  ZINC001085817863    0.0800
     49 H49        -5.9118    2.7048   55.7015 H       1  ZINC001085817863    0.0900
     50 H50        -5.1954    3.7844   56.9220 H       1  ZINC001085817863    0.0900
@<TRIPOS>BOND
     1     1     2    1
     2     1    26    1
     3     1    27    1
     4     1    28    1
     5     2     3    1
     6     2    29    1
     7     2    30    1
     8     3    24    1
     9     3     4    2
    10     4     5    1
    11     4    22    1
    12     5     6    2
    13     5     7   am
    14     7     8    1
    15     7     9    1
    16     8    31    1
    17     8    32    1
    18     8    33    1
    19     9    10    1
    20     9    34    1
    21     9    35    1
    22    10    11    1
    23    10    14    1
    24    10    12    1
    25    12    13    1
    26    12    36    1
    27    12    37    1
    28    13    14    1
    29    13    38    1
    30    13    39    1
    31    14    15    1
    32    15    16    1
    33    15    40    1
    34    15    41    1
    35    16    21   ar
    36    16    17   ar
    37    17    18   ar
    38    17    42    1
    39    18    19   ar
    40    18    43    1
    41    19    20   ar
    42    19    44    1
    43    20    21   ar
    44    21    45    1
    45    22    23    2
    46    22    46    1
    47    23    24    1
    48    23    47    1
    49    24    25    1
    50    25    48    1
    51    25    49    1
    52    25    50    1
@<TRIPOS>SUBSTRUCTURE
     1 ZINC001085817863        1 TEMP              0 ****  ****    0 ROOT


##########                                Name:    ZINC000461336108
##########                DOCK_Rotatable_Bonds:                   5
##########                         Heavy_Atoms:                  26
##########                    Molecular_Weight:             373.522
##########                DOCK_Rotatable_Bonds:                   5
##########                       Formal_Charge:        -3.42727e-07
##########                     HBond_Acceptors:                   7
##########                        HBond_Donors:                   0
##########                         Heavy_Atoms:                  26
##########                          Grid_Score:          -29.186649
##########                     Grid_vdw_energy:          -28.590645
##########                      Grid_es_energy:           -0.596004
##########           Internal_energy_repulsive:           16.508606

@<TRIPOS>MOLECULE
ZINC000461336108
 53 56 1 0 0
SMALL
USER_CHARGES


@<TRIPOS>ATOM
      1 C1        -10.6061   -3.0529   56.6730 C.3     1  ZINC000461336108   -0.1300
      2 C2        -11.8705   -2.2674   57.0269 C.3     1  ZINC000461336108    0.0700
      3 H3        -12.1835   -1.6782   56.1648 H       1  ZINC000461336108    0.0800
      4 C4        -12.9654   -3.2264   57.3996 C.2     1  ZINC000461336108    0.5300
      5 O5        -13.1136   -4.2274   56.7311 O.2     1  ZINC000461336108   -0.5300
      6 N6        -13.7831   -3.0227   58.4378 N.am    1  ZINC000461336108   -0.6100
      7 C7        -14.8435   -4.0000   58.6958 C.3     1  ZINC000461336108    0.0700
      8 C8        -13.6660   -1.8698   59.3259 C.3     1  ZINC000461336108    0.1200
      9 C9        -12.8358   -0.7736   58.6555 C.3     1  ZINC000461336108    0.0400
     10 N10       -11.5871   -1.3694   58.1544 N.3     1  ZINC000461336108   -0.4300
     11 C11       -10.6805   -0.3876   57.7879 C.2     1  ZINC000461336108    0.3300
     12 N12       -10.8560    0.5324   56.8688 N.2     1  ZINC000461336108   -0.2500
     13 N13        -9.8117    1.2776   56.7918 N.2     1  ZINC000461336108   -0.2800
     14 C14        -8.9152    0.8806   57.6499 C.2     1  ZINC000461336108    0.2000
     15 C15        -7.5559    1.4931   57.8695 C.3     1  ZINC000461336108   -0.0300
     16 C16        -7.4743    2.8312   57.1323 C.3     1  ZINC000461336108   -0.0900
     17 C17        -6.0450    3.4194   57.2331 C.3     1  ZINC000461336108   -0.1200
     18 C18        -5.9752    4.3604   56.0048 C.3     1  ZINC000461336108   -0.1200
     19 C19        -6.7409    3.6005   54.9021 C.3     1  ZINC000461336108   -0.1300
     20 C20        -7.6940    2.6283   55.6189 C.3     1  ZINC000461336108   -0.1200
     21 N21        -9.4388   -0.1912   58.3186 N.pl3   1  ZINC000461336108   -0.4900
     22 C22        -8.7965   -0.9719   59.3788 C.3     1  ZINC000461336108    0.1700
     23 C23        -9.1106   -0.3550   60.7175 C.2     1  ZINC000461336108   -0.2400
     24 C24        -8.3150   -0.3932   61.7874 C.2     1  ZINC000461336108   -0.0900
     25 C25        -8.8154    0.2448   62.9094 C.2     1  ZINC000461336108   -0.1400
     26 C26       -10.0173    0.8009   62.7505 C.2     1  ZINC000461336108   -0.2000
     27 S27       -10.5790    0.5318   61.1056 S.3     1  ZINC000461336108    0.1200
     28 H28       -10.2918   -3.6427   57.5341 H       1  ZINC000461336108    0.0800
     29 H29       -10.8138   -3.7170   55.8340 H       1  ZINC000461336108    0.0800
     30 H30        -9.8118   -2.3585   56.3987 H       1  ZINC000461336108    0.0700
     31 H31       -14.7956   -4.7935   57.9501 H       1  ZINC000461336108    0.0900
     32 H32       -14.7099   -4.4271   59.6898 H       1  ZINC000461336108    0.0700
     33 H33       -15.8139   -3.5067   58.6398 H       1  ZINC000461336108    0.0600
     34 H34       -14.6604   -1.4839   59.5507 H       1  ZINC000461336108    0.0900
     35 H35       -13.1805   -2.1752   60.2529 H       1  ZINC000461336108    0.0900
     36 H36       -13.3974   -0.3461   57.8248 H       1  ZINC000461336108    0.0500
     37 H37       -12.6038    0.0053   59.3820 H       1  ZINC000461336108    0.1100
     38 H38        -7.3985    1.6554   58.9357 H       1  ZINC000461336108    0.0800
     39 H39        -6.7882    0.8202   57.4872 H       1  ZINC000461336108    0.1000
     40 H40        -8.2065    3.5320   57.5335 H       1  ZINC000461336108    0.0900
     41 H41        -5.9233    3.9823   58.1584 H       1  ZINC000461336108    0.0600
     42 H42        -5.2965    2.6304   57.1583 H       1  ZINC000461336108    0.0600
     43 H43        -6.4637    5.3099   56.2234 H       1  ZINC000461336108    0.0700
     44 H44        -4.9392    4.5229   55.7072 H       1  ZINC000461336108    0.0700
     45 H45        -7.3113    4.3015   54.2928 H       1  ZINC000461336108    0.0700
     46 H46        -6.0417    3.0450   54.2770 H       1  ZINC000461336108    0.0600
     47 H47        -7.4574    1.6010   55.3418 H       1  ZINC000461336108    0.0700
     48 H48        -8.7271    2.8574   55.3576 H       1  ZINC000461336108    0.0700
     49 H49        -9.1706   -1.9955   59.3537 H       1  ZINC000461336108    0.1200
     50 H50        -7.7175   -0.9755   59.2246 H       1  ZINC000461336108    0.1000
     51 H51        -7.3535   -0.8849   61.7790 H       1  ZINC000461336108    0.1400
     52 H52        -8.2738    0.2885   63.8427 H       1  ZINC000461336108    0.1500
     53 H53       -10.5608    1.3376   63.5141 H       1  ZINC000461336108    0.1700
@<TRIPOS>BOND
     1     1     2    1
     2     1    28    1
     3     1    29    1
     4     1    30    1
     5     2     3    1
     6     2    10    1
     7     2     4    1
     8     4     5    2
     9     4     6   am
    10     6     7    1
    11     6     8    1
    12     7    31    1
    13     7    32    1
    14     7    33    1
    15     8     9    1
    16     8    34    1
    17     8    35    1
    18     9    10    1
    19     9    36    1
    20     9    37    1
    21    10    11    1
    22    11    21    1
    23    11    12    2
    24    12    13    1
    25    13    14    2
    26    14    15    1
    27    14    21    1
    28    15    16    1
    29    15    38    1
    30    15    39    1
    31    16    20    1
    32    16    17    1
    33    16    40    1
    34    17    18    1
    35    17    41    1
    36    17    42    1
    37    18    19    1
    38    18    43    1
    39    18    44    1
    40    19    20    1
    41    19    45    1
    42    19    46    1
    43    20    47    1
    44    20    48    1
    45    21    22    1
    46    22    23    1
    47    22    49    1
    48    22    50    1
    49    23    27    1
    50    23    24    2
    51    24    25    1
    52    24    51    1
    53    25    26    2
    54    25    52    1
    55    26    27    1
    56    26    53    1
@<TRIPOS>SUBSTRUCTURE
     1 ZINC000461336108        1 TEMP              0 ****  ****    0 ROOT


##########                                Name:    ZINC001371344729
##########                DOCK_Rotatable_Bonds:                   9
##########                         Heavy_Atoms:                  24
##########                    Molecular_Weight:             332.399
##########                DOCK_Rotatable_Bonds:                   9
##########                       Formal_Charge:          0.00999983
##########                     HBond_Acceptors:                   6
##########                        HBond_Donors:                   1
##########                         Heavy_Atoms:                  24
##########                          Grid_Score:          -29.176132
##########                     Grid_vdw_energy:          -29.123796
##########                      Grid_es_energy:           -0.052336
##########           Internal_energy_repulsive:           25.223816

@<TRIPOS>MOLECULE
ZINC001371344729
 48 49 1 0 0
SMALL
USER_CHARGES


@<TRIPOS>ATOM
      1 C1         -9.8923   -3.1798   58.1173 C.3     1  ZINC001371344729   -0.1800
      2 C2         -9.5456   -2.1234   59.1684 C.3     1  ZINC001371344729    0.1000
      3 N3        -10.1968   -0.8576   58.8219 N.am    1  ZINC001371344729   -0.6100
      4 C4        -11.4629   -0.6205   59.2184 C.2     1  ZINC001371344729    0.5100
      5 O5        -12.0016    0.4280   58.9329 O.2     1  ZINC001371344729   -0.5200
      6 C6        -12.2094   -1.6581   60.0167 C.3     1  ZINC001371344729   -0.0600
      7 C7        -13.5106   -1.0757   60.5053 C.2     1  ZINC001371344729   -0.0100
      8 C8        -14.7118   -1.6788   60.4516 C.2     1  ZINC001371344729   -0.1600
      9 C9        -15.0045   -3.0495   59.8979 C.3     1  ZINC001371344729   -0.0800
     10 C10       -15.6478   -0.7775   61.0087 C.2     1  ZINC001371344729   -0.2100
     11 C11       -14.9612    0.3185   61.3783 C.2     1  ZINC001371344729   -0.0300
     12 O12       -13.6677    0.1338   61.0675 O.3     1  ZINC001371344729   -0.1700
     13 C13        -9.4718    0.1504   58.0444 C.3     1  ZINC001371344729    0.1200
     14 H14        -8.5157   -0.2599   57.7195 H       1  ZINC001371344729    0.1100
     15 C15        -9.2279    1.3861   58.9131 C.3     1  ZINC001371344729   -0.1600
     16 C16       -10.3006    0.5433   56.8199 C.3     1  ZINC001371344729    0.1100
     17 N17        -9.4065    0.8161   55.6919 N.am    1  ZINC001371344729   -0.7200
     18 C18        -9.2130   -0.1215   54.7432 C.2     1  ZINC001371344729    0.5900
     19 O19        -9.7818   -1.1935   54.8229 O.2     1  ZINC001371344729   -0.5300
     20 C20        -8.3121    0.1523   53.6095 C.2     1  ZINC001371344729   -0.2300
     21 C21        -8.4414   -0.2941   52.3270 C.2     1  ZINC001371344729    0.0200
     22 O22        -7.4181    0.1804   51.6099 O.3     1  ZINC001371344729   -0.1700
     23 C23        -6.6024    0.9241   52.3735 C.2     1  ZINC001371344729   -0.0100
     24 C24        -5.3475    1.6109   51.8997 C.3     1  ZINC001371344729   -0.0800
     25 C25        -7.0827    0.9585   53.6259 C.2     1  ZINC001371344729   -0.1600
     26 H26        -9.5435   -2.8475   57.1395 H       1  ZINC001371344729    0.0700
     27 H27        -9.4077   -4.1215   58.3752 H       1  ZINC001371344729    0.0700
     28 H28       -10.9724   -3.3228   58.0884 H       1  ZINC001371344729    0.0600
     29 H29        -8.4654   -1.9803   59.1972 H       1  ZINC001371344729    0.0900
     30 H30        -9.8944   -2.4557   60.1462 H       1  ZINC001371344729    0.0800
     31 H31       -11.6048   -1.9639   60.8706 H       1  ZINC001371344729    0.1100
     32 H32       -12.4128   -2.5241   59.3868 H       1  ZINC001371344729    0.1200
     33 H33       -14.9108   -3.7899   60.6923 H       1  ZINC001371344729    0.0700
     34 H34       -16.0187   -3.0711   59.4990 H       1  ZINC001371344729    0.0700
     35 H35       -14.2959   -3.2788   59.1020 H       1  ZINC001371344729    0.0600
     36 H36       -16.7100   -0.9393   61.1191 H       1  ZINC001371344729    0.1500
     37 H37       -15.3799    1.1999   61.8412 H       1  ZINC001371344729    0.2000
     38 H38        -8.6374    1.1061   59.7854 H       1  ZINC001371344729    0.0700
     39 H39        -8.6884    2.1361   58.3346 H       1  ZINC001371344729    0.0700
     40 H40       -10.1841    1.7962   59.2379 H       1  ZINC001371344729    0.0700
     41 H41       -10.9745   -0.2732   56.5600 H       1  ZINC001371344729    0.0800
     42 H42       -10.8827    1.4365   57.0465 H       1  ZINC001371344729    0.0800
     43 H43        -8.9537    1.6715   55.6278 H       1  ZINC001371344729    0.4000
     44 H44        -9.2367   -0.9225   51.9539 H       1  ZINC001371344729    0.2100
     45 H45        -4.4982    0.9380   52.0182 H       1  ZINC001371344729    0.0800
     46 H46        -5.4547    1.8792   50.8488 H       1  ZINC001371344729    0.0800
     47 H47        -5.1818    2.5123   52.4897 H       1  ZINC001371344729    0.0900
     48 H48        -6.6539    1.4734   54.4729 H       1  ZINC001371344729    0.1600
@<TRIPOS>BOND
     1     1     2    1
     2     1    26    1
     3     1    27    1
     4     1    28    1
     5     2     3    1
     6     2    29    1
     7     2    30    1
     8     3     4   am
     9     3    13    1
    10     4     5    2
    11     4     6    1
    12     6     7    1
    13     6    31    1
    14     6    32    1
    15     7    12    1
    16     7     8    2
    17     8     9    1
    18     8    10    1
    19     9    33    1
    20     9    34    1
    21     9    35    1
    22    10    11    2
    23    10    36    1
    24    11    12    1
    25    11    37    1
    26    13    14    1
    27    13    15    1
    28    13    16    1
    29    15    38    1
    30    15    39    1
    31    15    40    1
    32    16    17    1
    33    16    41    1
    34    16    42    1
    35    17    18   am
    36    17    43    1
    37    18    19    2
    38    18    20    1
    39    20    25    1
    40    20    21    2
    41    21    22    1
    42    21    44    1
    43    22    23    1
    44    23    24    1
    45    23    25    2
    46    24    45    1
    47    24    46    1
    48    24    47    1
    49    25    48    1
@<TRIPOS>SUBSTRUCTURE
     1 ZINC001371344729        1 TEMP              0 ****  ****    0 ROOT


##########                                Name:    ZINC000464752079
##########                DOCK_Rotatable_Bonds:                   7
##########                         Heavy_Atoms:                  29
##########                    Molecular_Weight:             404.413
##########                DOCK_Rotatable_Bonds:                   7
##########                       Formal_Charge:         7.45058e-08
##########                     HBond_Acceptors:                   8
##########                        HBond_Donors:                   1
##########                         Heavy_Atoms:                  29
##########                          Grid_Score:          -29.158499
##########                     Grid_vdw_energy:          -29.066545
##########                      Grid_es_energy:           -0.091953
##########           Internal_energy_repulsive:           14.868315

@<TRIPOS>MOLECULE
ZINC000464752079
 51 54 1 0 0
SMALL
USER_CHARGES


@<TRIPOS>ATOM
      1 C1        -13.6722   -0.5726   60.0871 C.3     1  ZINC000464752079   -0.1200
      2 C2        -13.0634   -1.4813   59.0503 C.ar    1  ZINC000464752079   -0.0800
      3 C3        -13.8514   -2.4101   58.3973 C.ar    1  ZINC000464752079   -0.1200
      4 C4        -13.2929   -3.2438   57.4461 C.ar    1  ZINC000464752079   -0.1200
      5 C5        -11.9466   -3.1481   57.1482 C.ar    1  ZINC000464752079   -0.1300
      6 C6        -11.1586   -2.2183   57.8008 C.ar    1  ZINC000464752079   -0.0900
      7 C7        -11.7178   -1.3819   58.7486 C.ar    1  ZINC000464752079   -0.0800
      8 C8        -10.8588   -0.3685   59.4600 C.3     1  ZINC000464752079    0.2000
      9 H9        -11.4781    0.4507   59.8255 H       1  ZINC000464752079    0.0900
     10 C10       -10.1249   -1.0388   60.6405 C.3     1  ZINC000464752079   -0.1200
     11 C11        -8.7266   -0.3671   60.6068 C.3     1  ZINC000464752079   -0.1300
     12 C12        -8.5025   -0.1918   59.0841 C.3     1  ZINC000464752079    0.1000
     13 N13        -9.8339    0.1503   58.5425 N.am    1  ZINC000464752079   -0.6300
     14 C14       -10.0672    0.8223   57.3977 C.2     1  ZINC000464752079    0.7200
     15 O15       -11.2094    1.0498   57.0484 O.2     1  ZINC000464752079   -0.5700
     16 N16        -9.0346    1.2420   56.6402 N.am    1  ZINC000464752079   -0.7400
     17 C17        -9.2883    1.9739   55.3968 C.3     1  ZINC000464752079    0.1900
     18 C18        -8.1809    1.6932   54.4138 C.ar    1  ZINC000464752079   -0.1200
     19 C19        -7.2391    2.6666   54.1386 C.ar    1  ZINC000464752079   -0.0500
     20 C20        -6.2203    2.4119   53.2352 C.ar    1  ZINC000464752079    0.0100
     21 C21        -6.1453    1.1729   52.6040 C.ar    1  ZINC000464752079    0.0800
     22 C22        -7.0897    0.1983   52.8823 C.ar    1  ZINC000464752079   -0.1800
     23 C23        -8.1049    0.4564   53.7907 C.ar    1  ZINC000464752079    0.1400
     24 O24        -9.0317   -0.5004   54.0640 O.3     1  ZINC000464752079   -0.3100
     25 C25        -9.9635   -0.8159   53.0276 C.3     1  ZINC000464752079    0.4100
     26 F26        -9.6841   -2.0897   52.5212 F       1  ZINC000464752079   -0.2000
     27 F27       -11.2626   -0.7948   53.5461 F       1  ZINC000464752079   -0.2000
     28 O28        -5.0644    1.1725   51.7705 O.3     1  ZINC000464752079   -0.3000
     29 C29        -4.7175    2.5581   51.5894 C.3     1  ZINC000464752079    0.2100
     30 O30        -5.1855    3.1883   52.7965 O.3     1  ZINC000464752079   -0.3000
     31 H31       -14.0337    0.3364   59.6063 H       1  ZINC000464752079    0.0700
     32 H32       -14.5042   -1.0820   60.5733 H       1  ZINC000464752079    0.0700
     33 H33       -12.9189   -0.3148   60.8316 H       1  ZINC000464752079    0.0700
     34 H34       -14.9033   -2.4849   58.6301 H       1  ZINC000464752079    0.1200
     35 H35       -13.9085   -3.9701   56.9363 H       1  ZINC000464752079    0.1200
     36 H36       -11.5102   -3.7997   56.4057 H       1  ZINC000464752079    0.1200
     37 H37       -10.1066   -2.1437   57.5683 H       1  ZINC000464752079    0.1100
     38 H38       -10.6325   -0.8258   61.5813 H       1  ZINC000464752079    0.0900
     39 H39       -10.0402   -2.1138   60.4815 H       1  ZINC000464752079    0.0800
     40 H40        -8.7446    0.5981   61.1128 H       1  ZINC000464752079    0.0800
     41 H41        -7.9690   -1.0200   61.0406 H       1  ZINC000464752079    0.0900
     42 H42        -7.7981    0.6183   58.8952 H       1  ZINC000464752079    0.0700
     43 H43        -8.1401   -1.1210   58.6445 H       1  ZINC000464752079    0.0700
     44 H44        -8.1234    1.0595   56.9184 H       1  ZINC000464752079    0.4000
     45 H45       -10.2399    1.6523   54.9736 H       1  ZINC000464752079    0.0800
     46 H46        -9.3263    3.0430   55.6057 H       1  ZINC000464752079    0.0800
     47 H47        -7.2978    3.6274   54.6283 H       1  ZINC000464752079    0.1500
     48 H48        -7.0333   -0.7634   52.3940 H       1  ZINC000464752079    0.1500
     49 H49        -9.8796   -0.0804   52.2274 H       1  ZINC000464752079    0.1900
     50 H50        -3.6380    2.6730   51.4911 H       1  ZINC000464752079    0.1400
     51 H51        -5.2284    2.9703   50.7193 H       1  ZINC000464752079    0.0900
@<TRIPOS>BOND
     1     1     2    1
     2     1    31    1
     3     1    32    1
     4     1    33    1
     5     2     7   ar
     6     2     3   ar
     7     3     4   ar
     8     3    34    1
     9     4     5   ar
    10     4    35    1
    11     5     6   ar
    12     5    36    1
    13     6     7   ar
    14     6    37    1
    15     7     8    1
    16     8     9    1
    17     8    13    1
    18     8    10    1
    19    10    11    1
    20    10    38    1
    21    10    39    1
    22    11    12    1
    23    11    40    1
    24    11    41    1
    25    12    13    1
    26    12    42    1
    27    12    43    1
    28    13    14   am
    29    14    15    2
    30    14    16   am
    31    16    17    1
    32    16    44    1
    33    17    18    1
    34    17    45    1
    35    17    46    1
    36    18    23   ar
    37    18    19   ar
    38    19    20   ar
    39    19    47    1
    40    20    30    1
    41    20    21   ar
    42    21    22   ar
    43    21    28    1
    44    22    23   ar
    45    22    48    1
    46    23    24    1
    47    24    25    1
    48    25    26    1
    49    25    27    1
    50    25    49    1
    51    28    29    1
    52    29    30    1
    53    29    50    1
    54    29    51    1
@<TRIPOS>SUBSTRUCTURE
     1 ZINC000464752079        1 TEMP              0 ****  ****    0 ROOT


##########                                Name:    ZINC000020646552
##########                DOCK_Rotatable_Bonds:                   5
##########                         Heavy_Atoms:                  29
##########                    Molecular_Weight:             412.556
##########                DOCK_Rotatable_Bonds:                   5
##########                       Formal_Charge:          -0.0200012
##########                     HBond_Acceptors:                   7
##########                        HBond_Donors:                   0
##########                         Heavy_Atoms:                  29
##########                          Grid_Score:          -29.145422
##########                     Grid_vdw_energy:          -28.460785
##########                      Grid_es_energy:           -0.684637
##########           Internal_energy_repulsive:           16.157660

@<TRIPOS>MOLECULE
ZINC000020646552
 57 60 1 0 0
SMALL
USER_CHARGES


@<TRIPOS>ATOM
      1 C1        -15.4732   -1.9504   60.7139 C.3     1  ZINC000020646552    0.0200
      2 N2        -14.3401   -1.4922   59.8989 N.3     1  ZINC000020646552   -0.5400
      3 C3        -14.8068   -0.7896   58.6962 C.3     1  ZINC000020646552    0.0400
      4 C4        -13.6061   -0.1731   57.9706 C.3     1  ZINC000020646552    0.1200
      5 N5        -12.6138   -1.2310   57.7271 N.am    1  ZINC000020646552   -0.6100
      6 C6        -12.0985   -1.4263   56.4971 C.2     1  ZINC000020646552    0.5300
      7 O7        -12.4511   -0.7240   55.5734 O.2     1  ZINC000020646552   -0.5200
      8 C8        -11.0842   -2.5174   56.2697 C.3     1  ZINC000020646552   -0.1500
      9 S9        -10.0041   -2.0592   54.8914 S.3     1  ZINC000020646552    0.0500
     10 C10        -9.3399   -0.5498   55.5119 C.ar    1  ZINC000020646552    0.1500
     11 N11        -9.2479   -0.3410   56.8208 N.ar    1  ZINC000020646552   -0.5200
     12 C12        -8.7485    0.7947   57.2881 C.ar    1  ZINC000020646552    0.3800
     13 C13        -8.6571    0.9950   58.7550 C.ar    1  ZINC000020646552   -0.0500
     14 C14        -8.5866    2.2834   59.2818 C.ar    1  ZINC000020646552   -0.0700
     15 C15        -8.5022    2.4639   60.6475 C.ar    1  ZINC000020646552   -0.1300
     16 C16        -8.4874    1.3691   61.4928 C.ar    1  ZINC000020646552   -0.1000
     17 C17        -8.5566    0.0880   60.9754 C.ar    1  ZINC000020646552   -0.1300
     18 C18        -8.6471   -0.1042   59.6118 C.ar    1  ZINC000020646552   -0.0700
     19 N19        -8.3286    1.7551   56.4776 N.ar    1  ZINC000020646552   -0.5200
     20 C20        -8.3924    1.6128   55.1597 C.ar    1  ZINC000020646552    0.2100
     21 C21        -8.8960    0.4453   54.6334 C.ar    1  ZINC000020646552   -0.2100
     22 C22        -8.9834    0.2181   53.1494 C.3     1  ZINC000020646552    0.1100
     23 O23        -8.8421    1.4565   52.4524 O.3     1  ZINC000020646552   -0.3600
     24 C24        -7.6868    2.2014   52.8538 C.3     1  ZINC000020646552    0.1100
     25 C25        -6.4575    1.2905   52.8387 C.3     1  ZINC000020646552   -0.1800
     26 C26        -7.4707    3.3718   51.8923 C.3     1  ZINC000020646552   -0.1400
     27 C27        -7.9108    2.7291   54.2709 C.3     1  ZINC000020646552   -0.0900
     28 C28       -12.1983   -2.0698   58.8616 C.3     1  ZINC000020646552    0.1100
     29 C29       -13.4544   -2.6116   59.5521 C.3     1  ZINC000020646552    0.0400
     30 H30       -15.1006   -2.3993   61.6345 H       1  ZINC000020646552    0.0700
     31 H31       -16.1129   -1.1018   60.9565 H       1  ZINC000020646552    0.0700
     32 H32       -16.0470   -2.6899   60.1554 H       1  ZINC000020646552    0.0300
     33 H33       -15.3086   -1.4954   58.0342 H       1  ZINC000020646552    0.0400
     34 H34       -15.5029   -0.0011   58.9826 H       1  ZINC000020646552    0.0900
     35 H35       -13.9306    0.2503   57.0201 H       1  ZINC000020646552    0.1000
     36 H36       -13.1648    0.6072   58.5905 H       1  ZINC000020646552    0.0800
     37 H37       -10.4862   -2.6513   57.1710 H       1  ZINC000020646552    0.1300
     38 H38       -11.5991   -3.4488   56.0337 H       1  ZINC000020646552    0.1200
     39 H39        -8.5977    3.1388   58.6227 H       1  ZINC000020646552    0.1400
     40 H40        -8.4471    3.4617   61.0569 H       1  ZINC000020646552    0.1300
     41 H41        -8.4212    1.5150   62.5609 H       1  ZINC000020646552    0.1300
     42 H42        -8.5443   -0.7631   61.6401 H       1  ZINC000020646552    0.1300
     43 H43        -8.7011   -1.1048   59.2088 H       1  ZINC000020646552    0.1300
     44 H44        -8.1900   -0.4627   52.8410 H       1  ZINC000020646552    0.0800
     45 H45        -9.9500   -0.2241   52.9080 H       1  ZINC000020646552    0.1100
     46 H46        -6.3058    0.9017   51.8319 H       1  ZINC000020646552    0.0700
     47 H47        -5.5797    1.8598   53.1445 H       1  ZINC000020646552    0.0700
     48 H48        -6.6114    0.4612   53.5291 H       1  ZINC000020646552    0.0600
     49 H49        -8.3450    4.0225   51.9096 H       1  ZINC000020646552    0.0700
     50 H50        -6.5910    3.9370   52.1999 H       1  ZINC000020646552    0.0800
     51 H51        -7.3222    2.9896   50.8823 H       1  ZINC000020646552    0.0700
     52 H52        -8.6627    3.5179   54.2496 H       1  ZINC000020646552    0.1000
     53 H53        -6.9754    3.1309   54.6604 H       1  ZINC000020646552    0.1000
     54 H54       -11.5921   -2.9004   58.5000 H       1  ZINC000020646552    0.0900
     55 H55       -11.6216   -1.4718   59.5672 H       1  ZINC000020646552    0.0800
     56 H56       -13.1696   -3.1446   60.4592 H       1  ZINC000020646552    0.0900
     57 H57       -13.9750   -3.2921   58.8783 H       1  ZINC000020646552    0.0400
@<TRIPOS>BOND
     1     1     2    1
     2     1    30    1
     3     1    31    1
     4     1    32    1
     5     2    29    1
     6     2     3    1
     7     3     4    1
     8     3    33    1
     9     3    34    1
    10     4     5    1
    11     4    35    1
    12     4    36    1
    13     5     6   am
    14     5    28    1
    15     6     7    2
    16     6     8    1
    17     8     9    1
    18     8    37    1
    19     8    38    1
    20     9    10    1
    21    10    21   ar
    22    10    11   ar
    23    11    12   ar
    24    12    13    1
    25    12    19   ar
    26    13    18   ar
    27    13    14   ar
    28    14    15   ar
    29    14    39    1
    30    15    16   ar
    31    15    40    1
    32    16    17   ar
    33    16    41    1
    34    17    18   ar
    35    17    42    1
    36    18    43    1
    37    19    20   ar
    38    20    27    1
    39    20    21   ar
    40    21    22    1
    41    22    23    1
    42    22    44    1
    43    22    45    1
    44    23    24    1
    45    24    25    1
    46    24    26    1
    47    24    27    1
    48    25    46    1
    49    25    47    1
    50    25    48    1
    51    26    49    1
    52    26    50    1
    53    26    51    1
    54    27    52    1
    55    27    53    1
    56    28    29    1
    57    28    54    1
    58    28    55    1
    59    29    56    1
    60    29    57    1
@<TRIPOS>SUBSTRUCTURE
     1 ZINC000020646552        1 TEMP              0 ****  ****    0 ROOT


##########                                Name:    ZINC000011157684
##########                DOCK_Rotatable_Bonds:                   7
##########                         Heavy_Atoms:                  25
##########                    Molecular_Weight:             374.866
##########                DOCK_Rotatable_Bonds:                   7
##########                       Formal_Charge:           0.0400001
##########                     HBond_Acceptors:                   6
##########                        HBond_Donors:                   2
##########                         Heavy_Atoms:                  25
##########                          Grid_Score:          -29.135925
##########                     Grid_vdw_energy:          -28.666018
##########                      Grid_es_energy:           -0.469908
##########           Internal_energy_repulsive:            5.558918

@<TRIPOS>MOLECULE
ZINC000011157684
 41 43 1 0 0
SMALL
USER_CHARGES


@<TRIPOS>ATOM
      1 O1         -8.3584   -2.4316   58.8240 O.2     1  ZINC000011157684   -0.5200
      2 C2         -9.1313   -1.6849   59.3861 C.2     1  ZINC000011157684    0.5100
      3 C3         -8.6579   -0.8405   60.5410 C.3     1  ZINC000011157684    0.1000
      4 N4         -9.7189   -0.7502   61.5471 N.pl3   1  ZINC000011157684   -0.7300
      5 C5         -9.9381    0.4530   62.2265 C.ar    1  ZINC000011157684    0.2200
      6 C6        -10.8856    1.3529   61.7584 C.ar    1  ZINC000011157684   -0.1600
      7 C7        -11.1010    2.5404   62.4311 C.ar    1  ZINC000011157684   -0.0900
      8 C8        -10.3725    2.8339   63.5711 C.ar    1  ZINC000011157684    0.0500
      9 F9        -10.5847    3.9959   64.2266 F       1  ZINC000011157684   -0.1400
     10 C10        -9.4268    1.9378   64.0409 C.ar    1  ZINC000011157684   -0.0900
     11 C11        -9.2115    0.7466   63.3745 C.ar    1  ZINC000011157684   -0.0900
     12 Cl12       -8.0260   -0.3766   63.9634 Cl      1  ZINC000011157684   -0.0500
     13 N13       -10.4122   -1.6062   58.9743 N.am    1  ZINC000011157684   -0.7200
     14 C14       -10.8724   -2.4271   57.8516 C.3     1  ZINC000011157684    0.2600
     15 H15       -10.3283   -3.3716   57.8450 H       1  ZINC000011157684    0.1200
     16 C16       -10.6231   -1.6947   56.5583 C.2     1  ZINC000011157684   -0.1900
     17 C17       -10.1839   -2.2543   55.4301 C.2     1  ZINC000011157684   -0.1200
     18 C18       -10.0298   -1.3807   54.3673 C.2     1  ZINC000011157684   -0.1300
     19 C19       -10.3438   -0.1118   54.6327 C.2     1  ZINC000011157684   -0.2100
     20 S20       -10.8741    0.0275   56.3039 S.3     1  ZINC000011157684    0.1100
     21 C21       -12.3475   -2.6983   57.9991 C.ar    1  ZINC000011157684   -0.0900
     22 C22       -12.8893   -3.8658   57.4949 C.ar    1  ZINC000011157684   -0.1100
     23 C23       -14.2424   -4.1145   57.6301 C.ar    1  ZINC000011157684   -0.1100
     24 C24       -15.0534   -3.1961   58.2701 C.ar    1  ZINC000011157684   -0.1100
     25 C25       -14.5114   -2.0291   58.7751 C.ar    1  ZINC000011157684   -0.1100
     26 C26       -13.1576   -1.7822   58.6436 C.ar    1  ZINC000011157684   -0.1000
     27 H27        -7.7732   -1.2964   60.9859 H       1  ZINC000011157684    0.1000
     28 H28        -8.4106    0.1589   60.1831 H       1  ZINC000011157684    0.1000
     29 H29       -10.2695   -1.5246   61.7422 H       1  ZINC000011157684    0.4200
     30 H30       -11.4540    1.1251   60.8688 H       1  ZINC000011157684    0.1400
     31 H31       -11.8382    3.2406   62.0670 H       1  ZINC000011157684    0.1400
     32 H32        -8.8597    2.1686   64.9307 H       1  ZINC000011157684    0.1500
     33 H33       -11.0294   -1.0061   59.4215 H       1  ZINC000011157684    0.4000
     34 H34        -9.9648   -3.3089   55.3517 H       1  ZINC000011157684    0.1400
     35 H35        -9.6813   -1.7023   53.3969 H       1  ZINC000011157684    0.1400
     36 H36       -10.2850    0.7046   53.9281 H       1  ZINC000011157684    0.1700
     37 H37       -12.2557   -4.5833   56.9949 H       1  ZINC000011157684    0.1200
     38 H38       -14.6658   -5.0264   57.2355 H       1  ZINC000011157684    0.1300
     39 H39       -16.1107   -3.3902   58.3751 H       1  ZINC000011157684    0.1300
     40 H40       -15.1451   -1.3114   59.2748 H       1  ZINC000011157684    0.1300
     41 H41       -12.7342   -0.8705   59.0382 H       1  ZINC000011157684    0.1300
@<TRIPOS>BOND
     1     1     2    2
     2     2     3    1
     3     2    13   am
     4     3     4    1
     5     3    27    1
     6     3    28    1
     7     4     5    1
     8     4    29    1
     9     5    11   ar
    10     5     6   ar
    11     6     7   ar
    12     6    30    1
    13     7     8   ar
    14     7    31    1
    15     8     9    1
    16     8    10   ar
    17    10    11   ar
    18    10    32    1
    19    11    12    1
    20    13    14    1
    21    13    33    1
    22    14    15    1
    23    14    16    1
    24    14    21    1
    25    16    20    1
    26    16    17    2
    27    17    18    1
    28    17    34    1
    29    18    19    2
    30    18    35    1
    31    19    20    1
    32    19    36    1
    33    21    26   ar
    34    21    22   ar
    35    22    23   ar
    36    22    37    1
    37    23    24   ar
    38    23    38    1
    39    24    25   ar
    40    24    39    1
    41    25    26   ar
    42    25    40    1
    43    26    41    1
@<TRIPOS>SUBSTRUCTURE
     1 ZINC000011157684        1 TEMP              0 ****  ****    0 ROOT


##########                                Name:    ZINC000847397179
##########                DOCK_Rotatable_Bonds:                   9
##########                         Heavy_Atoms:                  25
##########                    Molecular_Weight:             350.461
##########                DOCK_Rotatable_Bonds:                   9
##########                       Formal_Charge:          0.00999979
##########                     HBond_Acceptors:                   7
##########                        HBond_Donors:                   2
##########                         Heavy_Atoms:                  25
##########                          Grid_Score:          -29.121126
##########                     Grid_vdw_energy:          -29.318274
##########                      Grid_es_energy:            0.197147
##########           Internal_energy_repulsive:           84.747772

@<TRIPOS>MOLECULE
ZINC000847397179
 55 56 1 0 0
SMALL
USER_CHARGES


@<TRIPOS>ATOM
      1 C1         -8.9316    3.1281   54.1111 C.3     1  ZINC000847397179   -0.1500
      2 C2         -8.3615    1.7095   54.1690 C.3     1  ZINC000847397179   -0.1000
      3 H3         -7.4144    1.7203   54.7084 H       1  ZINC000847397179    0.0900
      4 C4         -8.1325    1.1934   52.7470 C.3     1  ZINC000847397179   -0.0200
      5 C5         -6.8423    1.7569   52.2097 C.2     1  ZINC000847397179    0.0100
      6 C6         -6.6078    2.1199   50.9343 C.2     1  ZINC000847397179   -0.0500
      7 N7         -5.3183    2.5764   50.8832 N.pl3   1  ZINC000847397179   -0.5700
      8 C8         -4.8095    2.4764   52.1300 C.2     1  ZINC000847397179    0.1800
      9 N9         -5.7282    1.9902   52.9191 N.2     1  ZINC000847397179   -0.4900
     10 C10        -9.3348    0.8057   54.8809 C.2     1  ZINC000847397179    0.5200
     11 O11       -10.5120    0.8332   54.5901 O.2     1  ZINC000847397179   -0.5300
     12 N12        -8.8972   -0.0333   55.8406 N.am    1  ZINC000847397179   -0.7400
     13 C13        -9.8437   -0.9107   56.5339 C.3     1  ZINC000847397179    0.1200
     14 C14        -9.5729   -0.8651   58.0390 C.3     1  ZINC000847397179    0.1500
     15 H15        -8.5987   -1.3065   58.2485 H       1  ZINC000847397179    0.0800
     16 C16        -9.5922    0.5891   58.5204 C.3     1  ZINC000847397179   -0.1300
     17 C17        -9.4598    0.6195   60.0448 C.3     1  ZINC000847397179   -0.1200
     18 C18       -10.6454   -0.1141   60.6761 C.3     1  ZINC000847397179   -0.1400
     19 C19       -10.6381   -1.5762   60.2192 C.3     1  ZINC000847397179    0.1100
     20 N20       -10.6169   -1.6155   58.7502 N.am    1  ZINC000847397179   -0.5900
     21 C21       -11.5403   -2.3220   58.0688 C.2     1  ZINC000847397179    0.6500
     22 O22       -11.5120   -2.3465   56.8543 O.2     1  ZINC000847397179   -0.5500
     23 O23       -12.4942   -3.0008   58.7337 O.3     1  ZINC000847397179   -0.3600
     24 C24       -13.8626   -2.5423   58.5736 C.3     1  ZINC000847397179    0.1400
     25 C25       -13.9005   -1.0146   58.6468 C.3     1  ZINC000847397179   -0.1800
     26 C26       -14.3988   -3.0014   57.2162 C.3     1  ZINC000847397179   -0.1400
     27 C27       -14.7305   -3.1280   59.6894 C.3     1  ZINC000847397179   -0.1800
     28 H28        -9.8786    3.1174   53.5716 H       1  ZINC000847397179    0.0500
     29 H29        -9.0946    3.4958   55.1242 H       1  ZINC000847397179    0.0500
     30 H30        -8.2275    3.7818   53.5961 H       1  ZINC000847397179    0.1000
     31 H31        -8.0761    0.1049   52.7602 H       1  ZINC000847397179    0.0800
     32 H32        -8.9593    1.5065   52.1094 H       1  ZINC000847397179    0.0800
     33 H33        -7.3032    2.0617   50.1100 H       1  ZINC000847397179    0.1800
     34 H34        -4.8563    2.9095   50.0979 H       1  ZINC000847397179    0.4200
     35 H35        -3.8092    2.7563   52.4261 H       1  ZINC000847397179    0.2100
     36 H36        -7.9556   -0.0562   56.0723 H       1  ZINC000847397179    0.3900
     37 H37       -10.8617   -0.5744   56.3374 H       1  ZINC000847397179    0.0800
     38 H38        -9.7227   -1.9324   56.1737 H       1  ZINC000847397179    0.1000
     39 H39        -8.7598    1.1317   58.0721 H       1  ZINC000847397179    0.0800
     40 H40       -10.5320    1.0570   58.2275 H       1  ZINC000847397179    0.0700
     41 H41        -8.5315    0.1295   60.3385 H       1  ZINC000847397179    0.0700
     42 H42        -9.4485    1.6540   60.3877 H       1  ZINC000847397179    0.0700
     43 H43       -10.5628   -0.0719   61.7622 H       1  ZINC000847397179    0.0800
     44 H44       -11.5754    0.3604   60.3628 H       1  ZINC000847397179    0.0700
     45 H45        -9.7515   -2.0764   60.6087 H       1  ZINC000847397179    0.0700
     46 H46       -11.5339   -2.0779   60.5853 H       1  ZINC000847397179    0.0900
     47 H47       -13.2822   -0.5972   57.8520 H       1  ZINC000847397179    0.0600
     48 H48       -14.9277   -0.6703   58.5267 H       1  ZINC000847397179    0.0700
     49 H49       -13.5184   -0.6875   59.6139 H       1  ZINC000847397179    0.0900
     50 H50       -14.3719   -4.0898   57.1641 H       1  ZINC000847397179    0.0700
     51 H51       -15.4260   -2.6572   57.0962 H       1  ZINC000847397179    0.0800
     52 H52       -13.7806   -2.5841   56.4214 H       1  ZINC000847397179    0.0700
     53 H53       -14.3484   -2.8009   60.6565 H       1  ZINC000847397179    0.0900
     54 H54       -15.7577   -2.7838   59.5693 H       1  ZINC000847397179    0.0700
     55 H55       -14.7035   -4.2164   59.6372 H       1  ZINC000847397179    0.0600
@<TRIPOS>BOND
     1     1     2    1
     2     1    28    1
     3     1    29    1
     4     1    30    1
     5     2     3    1
     6     2     4    1
     7     2    10    1
     8     4     5    1
     9     4    31    1
    10     4    32    1
    11     5     9    1
    12     5     6    2
    13     6     7    1
    14     6    33    1
    15     7     8    1
    16     7    34    1
    17     8     9    2
    18     8    35    1
    19    10    11    2
    20    10    12   am
    21    12    13    1
    22    12    36    1
    23    13    14    1
    24    13    37    1
    25    13    38    1
    26    14    15    1
    27    14    20    1
    28    14    16    1
    29    16    17    1
    30    16    39    1
    31    16    40    1
    32    17    18    1
    33    17    41    1
    34    17    42    1
    35    18    19    1
    36    18    43    1
    37    18    44    1
    38    19    20    1
    39    19    45    1
    40    19    46    1
    41    20    21   am
    42    21    22    2
    43    21    23    1
    44    23    24    1
    45    24    25    1
    46    24    26    1
    47    24    27    1
    48    25    47    1
    49    25    48    1
    50    25    49    1
    51    26    50    1
    52    26    51    1
    53    26    52    1
    54    27    53    1
    55    27    54    1
    56    27    55    1
@<TRIPOS>SUBSTRUCTURE
     1 ZINC000847397179        1 TEMP              0 ****  ****    0 ROOT


##########                                Name:    ZINC001386869844
##########                DOCK_Rotatable_Bonds:                   9
##########                         Heavy_Atoms:                  25
##########                    Molecular_Weight:             345.485
##########                DOCK_Rotatable_Bonds:                   9
##########                       Formal_Charge:          -0.0300003
##########                     HBond_Acceptors:                   5
##########                        HBond_Donors:                   2
##########                         Heavy_Atoms:                  25
##########                          Grid_Score:          -29.095911
##########                     Grid_vdw_energy:          -27.919367
##########                      Grid_es_energy:           -1.176544
##########           Internal_energy_repulsive:           31.535175

@<TRIPOS>MOLECULE
ZINC001386869844
 56 58 1 0 0
SMALL
USER_CHARGES


@<TRIPOS>ATOM
      1 C1         -8.1645    3.7027   57.3777 C.3     1  ZINC001386869844    0.0600
      2 N2         -8.0012    2.3854   57.9976 N.am    1  ZINC001386869844   -0.6200
      3 C3         -8.3226    2.1979   59.4145 C.3     1  ZINC001386869844    0.1100
      4 C4         -9.8151    2.4502   59.6367 C.3     1  ZINC001386869844    0.1000
      5 N5        -10.4530    1.2197   60.1112 N.am    1  ZINC001386869844   -0.7300
      6 C6        -11.7658    1.0115   59.8874 C.2     1  ZINC001386869844    0.5200
      7 O7        -12.4199    1.8452   59.2976 O.2     1  ZINC001386869844   -0.5300
      8 C8        -12.4219   -0.2543   60.3755 C.3     1  ZINC001386869844   -0.1300
      9 C9        -12.3295   -1.3280   59.2895 C.3     1  ZINC001386869844   -0.0100
     10 C10       -13.4164   -2.3801   59.5186 C.3     1  ZINC001386869844   -0.1500
     11 C11       -12.5258   -0.6826   57.9162 C.3     1  ZINC001386869844   -0.1600
     12 C12       -10.9537   -1.9950   59.3475 C.3     1  ZINC001386869844   -0.1500
     13 C13       -10.0344   -1.8246   58.1365 C.3     1  ZINC001386869844   -0.1900
     14 C14       -10.7008   -3.1757   58.4078 C.3     1  ZINC001386869844   -0.1800
     15 C15        -7.5554    1.3462   57.2644 C.2     1  ZINC001386869844    0.5900
     16 O16        -7.4197    0.2520   57.7794 O.2     1  ZINC001386869844   -0.5200
     17 C17        -7.2336    1.5341   55.8457 C.2     1  ZINC001386869844   -0.0600
     18 C18        -7.8935    0.9610   54.7771 C.2     1  ZINC001386869844   -0.0900
     19 C19        -7.2598    1.4082   53.6206 C.2     1  ZINC001386869844   -0.1700
     20 C20        -6.2419    2.2305   53.9896 C.2     1  ZINC001386869844    0.0500
     21 C21        -5.3151    2.9127   53.0117 C.3     1  ZINC001386869844   -0.0600
     22 C22        -5.4426    2.2118   51.6540 C.3     1  ZINC001386869844   -0.1100
     23 C23        -6.9215    2.0949   51.2754 C.3     1  ZINC001386869844   -0.1200
     24 C24        -7.6039    1.0715   52.1911 C.3     1  ZINC001386869844   -0.0500
     25 N25        -6.2218    2.3194   55.3376 N.pl3   1  ZINC001386869844   -0.5400
     26 H26        -7.2075    4.2243   57.3754 H       1  ZINC001386869844    0.0600
     27 H27        -8.5144    3.5810   56.3525 H       1  ZINC001386869844    0.0800
     28 H28        -8.8932    4.2829   57.9438 H       1  ZINC001386869844    0.0900
     29 H29        -7.7423    2.8990   60.0145 H       1  ZINC001386869844    0.1000
     30 H30        -8.0785    1.1777   59.7105 H       1  ZINC001386869844    0.0900
     31 H31       -10.2751    2.7591   58.6981 H       1  ZINC001386869844    0.0700
     32 H32        -9.9440    3.2364   60.3806 H       1  ZINC001386869844    0.0700
     33 H33        -9.9307    0.5547   60.5866 H       1  ZINC001386869844    0.4000
     34 H34       -11.9147   -0.6029   61.2751 H       1  ZINC001386869844    0.0900
     35 H35       -13.4694   -0.0564   60.6025 H       1  ZINC001386869844    0.0900
     36 H36       -14.3965   -1.9050   59.4773 H       1  ZINC001386869844    0.0800
     37 H37       -13.3505   -3.1451   58.7449 H       1  ZINC001386869844    0.0500
     38 H38       -13.2766   -2.8399   60.4970 H       1  ZINC001386869844    0.0500
     39 H39       -11.7515    0.0669   57.7529 H       1  ZINC001386869844    0.0500
     40 H40       -12.4599   -1.4476   57.1425 H       1  ZINC001386869844    0.0500
     41 H41       -13.5059   -0.2075   57.8749 H       1  ZINC001386869844    0.0800
     42 H42       -10.4879   -2.0270   60.3324 H       1  ZINC001386869844    0.1000
     43 H43       -10.4096   -1.2374   57.2984 H       1  ZINC001386869844    0.1000
     44 H44        -8.9637   -1.7448   58.3247 H       1  ZINC001386869844    0.0900
     45 H45       -10.0683   -3.9841   58.7744 H       1  ZINC001386869844    0.0900
     46 H46       -11.5145   -3.4772   57.7483 H       1  ZINC001386869844    0.0900
     47 H47        -8.7402    0.2923   54.8284 H       1  ZINC001386869844    0.1500
     48 H48        -5.5951    3.9614   52.9110 H       1  ZINC001386869844    0.0800
     49 H49        -4.2874    2.8393   53.3675 H       1  ZINC001386869844    0.0800
     50 H50        -4.9181    2.7922   50.8950 H       1  ZINC001386869844    0.0700
     51 H51        -5.0040    1.2160   51.7169 H       1  ZINC001386869844    0.0700
     52 H52        -7.4041    3.0653   51.3917 H       1  ZINC001386869844    0.0600
     53 H53        -7.0065    1.7687   50.2388 H       1  ZINC001386869844    0.0700
     54 H54        -7.2456    0.0699   51.9534 H       1  ZINC001386869844    0.0700
     55 H55        -8.6842    1.1179   52.0528 H       1  ZINC001386869844    0.0700
     56 H56        -5.5977    2.8466   55.8606 H       1  ZINC001386869844    0.4200
@<TRIPOS>BOND
     1     1     2    1
     2     1    26    1
     3     1    27    1
     4     1    28    1
     5     2     3    1
     6     2    15   am
     7     3     4    1
     8     3    29    1
     9     3    30    1
    10     4     5    1
    11     4    31    1
    12     4    32    1
    13     5     6   am
    14     5    33    1
    15     6     7    2
    16     6     8    1
    17     8     9    1
    18     8    34    1
    19     8    35    1
    20     9    10    1
    21     9    11    1
    22     9    12    1
    23    10    36    1
    24    10    37    1
    25    10    38    1
    26    11    39    1
    27    11    40    1
    28    11    41    1
    29    12    14    1
    30    12    13    1
    31    12    42    1
    32    13    14    1
    33    13    43    1
    34    13    44    1
    35    14    45    1
    36    14    46    1
    37    15    16    2
    38    15    17    1
    39    17    25    1
    40    17    18    2
    41    18    19    1
    42    18    47    1
    43    19    24    1
    44    19    20    2
    45    20    21    1
    46    20    25    1
    47    21    22    1
    48    21    48    1
    49    21    49    1
    50    22    23    1
    51    22    50    1
    52    22    51    1
    53    23    24    1
    54    23    52    1
    55    23    53    1
    56    24    54    1
    57    24    55    1
    58    25    56    1
@<TRIPOS>SUBSTRUCTURE
     1 ZINC001386869844        1 TEMP              0 ****  ****    0 ROOT


##########                                Name:     oleObject27.pdb
##########                DOCK_Rotatable_Bonds:                   9
##########                         Heavy_Atoms:                  35
##########                    Molecular_Weight:             513.466
##########                DOCK_Rotatable_Bonds:                   9
##########                       Formal_Charge:         0.000199873
##########                     HBond_Acceptors:                   8
##########                        HBond_Donors:                   1
##########                         Heavy_Atoms:                  35
##########                          Grid_Score:          -29.086264
##########                     Grid_vdw_energy:          -28.044350
##########                      Grid_es_energy:           -1.041914
##########           Internal_energy_repulsive:           44.303017

@<TRIPOS>MOLECULE
oleObject27.pdb
 65 68 1 0 0
SMALL
NO_CHARGES


@<TRIPOS>ATOM
      1 C         -10.0513    2.6325   64.8916 C.ar    1  UNL        -0.0620
      2 C         -11.4000    2.7021   65.2694 C.ar    1  UNL        -0.0590
      3 C         -12.4165    2.2818   64.3896 C.ar    1  UNL        -0.0456
      4 C         -12.0730    1.7762   63.1110 C.ar    1  UNL        -0.0187
      5 C         -10.7112    1.7227   62.7407 C.ar    1  UNL        -0.0565
      6 C          -9.7070    2.1452   63.6242 C.ar    1  UNL        -0.0619
      7 C         -13.1547    1.3068   62.1253 C.3     1  UNL         0.0921
      8 C         -13.8766    2.4722   61.4415 C.ar    1  UNL         0.0681
      9 C         -13.2084    3.6718   61.0897 C.ar    1  UNL        -0.0272
     10 C         -13.9535    4.6958   60.4753 C.ar    1  UNL        -0.0559
     11 C         -15.3228    4.5002   60.2433 C.ar    1  UNL        -0.0435
     12 C         -15.9053    3.2870   60.6393 C.ar    1  UNL         0.0272
     13 N         -15.2015    2.3013   61.2271 N.ar    1  UNL        -0.2587
     14 C         -11.7251    3.8896   61.3655 C.3     1  UNL        -0.0379
     15 N         -12.6434    0.3637   61.1201 N.am    1  UNL        -0.2865
     16 C         -13.4483   -0.3689   60.2665 C.2     1  UNL         0.3014
     17 O         -14.6646   -0.2813   60.2959 O.2     1  UNL        -0.2541
     18 N         -12.7752   -1.2123   59.3807 N.am    1  UNL        -0.2833
     19 C         -13.4932   -2.0681   58.3970 C.3     1  UNL         0.0284
     20 C         -12.6378   -3.1905   57.7602 C.3     1  UNL         0.0142
     21 N         -11.3171   -2.7114   57.3169 N.4     1  UNL        -0.2979
     22 C         -10.5848   -2.1600   58.4741 C.3     1  UNL         0.0142
     23 C         -11.3327   -0.9751   59.1275 C.3     1  UNL         0.0284
     24 C         -11.3874   -1.8369   56.1215 C.3     1  UNL         0.0223
     25 C         -10.0176   -1.6121   55.4502 C.3     1  UNL         0.0661
     26 O         -10.1094   -0.4102   54.6654 O.3     1  UNL        -0.3432
     27 C          -9.0567    0.1104   53.9376 C.ar    1  UNL         0.0937
     28 C          -8.5980   -0.4943   52.7476 C.ar    1  UNL        -0.0288
     29 C          -7.5240    0.0681   52.0377 C.ar    1  UNL        -0.0408
     30 C          -6.9027    1.2349   52.5101 C.ar    1  UNL         0.0422
     31 C          -7.3533    1.8423   53.6925 C.ar    1  UNL        -0.0221
     32 C          -8.4271    1.2824   54.4045 C.ar    1  UNL         0.0723
     33 CL         -8.9655    2.0657   55.8784 Cl      1  UNL        -0.0814
     34 CL         -5.5647    1.9332   51.6230 Cl      1  UNL        -0.0843
     35 C         -13.8678    2.3943   64.8444 C.3     1  UNL        -0.0394
     36 H          -9.2759    2.9609   65.5778 H       1  UNL         0.0623
     37 H         -11.6553    3.0881   66.2523 H       1  UNL         0.0626
     38 H         -10.4232    1.3582   61.7591 H       1  UNL         0.0627
     39 H          -8.6641    2.0966   63.3250 H       1  UNL         0.0623
     40 H         -13.8919    0.7478   62.7090 H       1  UNL         0.0625
     41 H         -13.4812    5.6304   60.1859 H       1  UNL         0.0627
     42 H         -15.9217    5.2738   59.7721 H       1  UNL         0.0639
     43 H         -16.9664    3.0976   60.4820 H       1  UNL         0.0840
     44 H         -11.4874    3.7033   62.4205 H       1  UNL         0.0280
     45 H         -11.4180    4.9183   61.1389 H       1  UNL         0.0280
     46 H         -11.1079    3.2199   60.7540 H       1  UNL         0.0280
     47 H         -11.6455    0.2114   61.0792 H       1  UNL         0.1521
     48 H         -13.8770   -1.4183   57.6002 H       1  UNL         0.0484
     49 H         -14.3542   -2.5472   58.8792 H       1  UNL         0.0484
     50 H         -13.1852   -3.6357   56.9195 H       1  UNL         0.0447
     51 H         -12.4963   -3.9805   58.5092 H       1  UNL         0.0447
     52 H          -9.5735   -1.8460   58.1908 H       1  UNL         0.0447
     53 H         -10.4715   -2.9487   59.2292 H       1  UNL         0.0447
     54 H         -11.2436   -0.0951   58.4781 H       1  UNL         0.0484
     55 H         -10.8325   -0.7359   60.0748 H       1  UNL         0.0484
     56 H         -11.8169   -0.8614   56.3827 H       1  UNL         0.0455
     57 H         -12.0519   -2.2985   55.3796 H       1  UNL         0.0455
     58 H          -9.7792   -2.4697   54.8081 H       1  UNL         0.0586
     59 H          -9.2364   -1.5030   56.2122 H       1  UNL         0.0586
     60 H          -9.0638   -1.3960   52.3638 H       1  UNL         0.0652
     61 H          -7.1747   -0.4011   51.1223 H       1  UNL         0.0639
     62 H          -6.8718    2.7452   54.0572 H       1  UNL         0.0655
     63 H         -13.9511    2.8983   65.8153 H       1  UNL         0.0280
     64 H         -14.3257    1.4030   64.9504 H       1  UNL         0.0280
     65 H         -14.4636    2.9724   64.1273 H       1  UNL         0.0280
@<TRIPOS>BOND
     1     1     2   ar
     2     1     6   ar
     3     1    36    1
     4     2     3   ar
     5     2    37    1
     6     3     4   ar
     7     3    35    1
     8     4     5   ar
     9     4     7    1
    10     5     6   ar
    11     5    38    1
    12     6    39    1
    13     7     8    1
    14     7    15    1
    15     7    40    1
    16     8     9   ar
    17     8    13   ar
    18     9    10   ar
    19     9    14    1
    20    10    11   ar
    21    10    41    1
    22    11    12   ar
    23    11    42    1
    24    12    13   ar
    25    12    43    1
    26    14    44    1
    27    14    45    1
    28    14    46    1
    29    15    16   am
    30    15    47    1
    31    16    17    2
    32    16    18   am
    33    18    19    1
    34    18    23    1
    35    19    20    1
    36    19    48    1
    37    19    49    1
    38    20    21    1
    39    20    50    1
    40    20    51    1
    41    21    22    1
    42    21    24    1
    43    22    23    1
    44    22    52    1
    45    22    53    1
    46    23    54    1
    47    23    55    1
    48    24    25    1
    49    24    56    1
    50    24    57    1
    51    25    26    1
    52    25    58    1
    53    25    59    1
    54    26    27    1
    55    27    28   ar
    56    27    32   ar
    57    28    29   ar
    58    28    60    1
    59    29    30   ar
    60    29    61    1
    61    30    31   ar
    62    30    34    1
    63    31    32   ar
    64    31    62    1
    65    32    33    1
    66    35    63    1
    67    35    64    1
    68    35    65    1
@<TRIPOS>SUBSTRUCTURE
     1 UNL         1 TEMP              0 ****  ****    0 ROOT


##########                                Name:    ZINC000555499135
##########                DOCK_Rotatable_Bonds:                   8
##########                         Heavy_Atoms:                  26
##########                    Molecular_Weight:             377.554
##########                DOCK_Rotatable_Bonds:                   8
##########                       Formal_Charge:           0.0399999
##########                     HBond_Acceptors:                   7
##########                        HBond_Donors:                   0
##########                         Heavy_Atoms:                  26
##########                          Grid_Score:          -29.067671
##########                     Grid_vdw_energy:          -28.775686
##########                      Grid_es_energy:           -0.291984
##########           Internal_energy_repulsive:           19.535345

@<TRIPOS>MOLECULE
ZINC000555499135
 57 59 1 0 0
SMALL
USER_CHARGES


@<TRIPOS>ATOM
      1 C1         -4.3985    2.8318   56.9570 C.3     1  ZINC000555499135   -0.1500
      2 C2         -5.8481    3.1493   56.5842 C.3     1  ZINC000555499135   -0.0500
      3 C3         -6.7739    2.5472   57.6096 C.2     1  ZINC000555499135   -0.2100
      4 C4         -7.2986    3.1803   58.6630 C.2     1  ZINC000555499135    0.0300
      5 N5         -8.0816    2.4334   59.4151 N.2     1  ZINC000555499135   -0.4500
      6 C6         -8.2467    1.2055   59.0547 C.2     1  ZINC000555499135    0.0400
      7 C7         -9.1010    0.2001   59.7829 C.3     1  ZINC000555499135    0.1500
      8 N8         -9.1506   -1.0497   59.0126 N.3     1  ZINC000555499135   -0.4500
      9 C9         -8.0779   -1.9648   59.4244 C.3     1  ZINC000555499135    0.0100
     10 C10       -10.3917   -1.6554   59.1281 C.2     1  ZINC000555499135    0.3500
     11 N11       -10.9002   -2.1911   60.2127 N.2     1  ZINC000555499135   -0.3100
     12 N12       -12.0696   -2.6609   59.9607 N.2     1  ZINC000555499135   -0.2900
     13 C13       -12.3742   -2.4546   58.7107 C.2     1  ZINC000555499135    0.2100
     14 C14       -13.6554   -2.8550   58.0257 C.3     1  ZINC000555499135   -0.0300
     15 C15       -14.8343   -2.1442   58.6933 C.3     1  ZINC000555499135   -0.0900
     16 C16       -15.1703   -2.8427   60.0123 C.3     1  ZINC000555499135   -0.1500
     17 C17       -14.4612   -0.6862   58.9688 C.3     1  ZINC000555499135   -0.1500
     18 N18       -11.3182   -1.8021   58.1371 N.pl3   1  ZINC000555499135   -0.4600
     19 C19       -11.2019   -1.3600   56.7453 C.3     1  ZINC000555499135    0.1100
     20 C20       -11.7254    0.0720   56.6196 C.3     1  ZINC000555499135    0.0700
     21 H21       -12.1907    0.3727   57.5584 H       1  ZINC000555499135    0.0700
     22 C22       -12.7591    0.1407   55.4925 C.3     1  ZINC000555499135   -0.1500
     23 C23       -13.2339    1.5883   55.3331 C.3     1  ZINC000555499135   -0.1200
     24 C24       -12.0213    2.4852   55.0652 C.3     1  ZINC000555499135   -0.1600
     25 C25       -11.0160    2.3259   56.2089 C.3     1  ZINC000555499135    0.0600
     26 O26       -10.6394    0.9522   56.3228 O.3     1  ZINC000555499135   -0.3700
     27 S27        -7.3618    0.8863   57.6269 S.3     1  ZINC000555499135    0.1200
     28 H28        -4.1757    3.2509   57.9382 H       1  ZINC000555499135    0.0600
     29 H29        -4.2584    1.7511   56.9830 H       1  ZINC000555499135    0.0600
     30 H30        -3.7289    3.2672   56.2154 H       1  ZINC000555499135    0.0700
     31 H31        -5.9882    4.2299   56.5582 H       1  ZINC000555499135    0.0900
     32 H32        -6.0709    2.7303   55.6029 H       1  ZINC000555499135    0.0800
     33 H33        -7.0974    4.2188   58.8802 H       1  ZINC000555499135    0.1800
     34 H34        -8.6734    0.0042   60.7662 H       1  ZINC000555499135    0.0800
     35 H35       -10.1100    0.5963   59.8980 H       1  ZINC000555499135    0.1200
     36 H36        -8.2558   -2.2962   60.4474 H       1  ZINC000555499135    0.0500
     37 H37        -8.0623   -2.8289   58.7600 H       1  ZINC000555499135    0.0800
     38 H38        -7.1194   -1.4484   59.3712 H       1  ZINC000555499135    0.0900
     39 H39       -13.6088   -2.5721   56.9740 H       1  ZINC000555499135    0.1000
     40 H40       -13.7885   -3.9338   58.1061 H       1  ZINC000555499135    0.1000
     41 H41       -15.7007   -2.1790   58.0328 H       1  ZINC000555499135    0.0800
     42 H42       -15.3973   -3.8915   59.8206 H       1  ZINC000555499135    0.0500
     43 H43       -14.3177   -2.7731   60.6878 H       1  ZINC000555499135    0.0600
     44 H44       -16.0354   -2.3613   60.4684 H       1  ZINC000555499135    0.0600
     45 H45       -14.2219   -0.1886   58.0290 H       1  ZINC000555499135    0.0600
     46 H46       -15.3011   -0.1799   59.4445 H       1  ZINC000555499135    0.0600
     47 H47       -13.5947   -0.6516   59.6293 H       1  ZINC000555499135    0.0600
     48 H48       -10.1561   -1.3927   56.4399 H       1  ZINC000555499135    0.1100
     49 H49       -11.7883   -2.0188   56.1047 H       1  ZINC000555499135    0.1200
     50 H50       -12.3056   -0.1985   54.5612 H       1  ZINC000555499135    0.0800
     51 H51       -13.6088   -0.4963   55.7382 H       1  ZINC000555499135    0.0800
     52 H52       -13.9283    1.6543   54.4955 H       1  ZINC000555499135    0.0700
     53 H53       -13.7317    1.9116   56.2474 H       1  ZINC000555499135    0.0600
     54 H54       -11.5529    2.1932   54.1254 H       1  ZINC000555499135    0.0700
     55 H55       -12.3433    3.5248   55.0055 H       1  ZINC000555499135    0.0800
     56 H56       -10.1321    2.9293   56.0025 H       1  ZINC000555499135    0.1000
     57 H57       -11.4720    2.6562   57.1423 H       1  ZINC000555499135    0.0500
@<TRIPOS>BOND
     1     1     2    1
     2     1    28    1
     3     1    29    1
     4     1    30    1
     5     2     3    1
     6     2    31    1
     7     2    32    1
     8     3    27    1
     9     3     4    2
    10     4     5    1
    11     4    33    1
    12     5     6    2
    13     6     7    1
    14     6    27    1
    15     7     8    1
    16     7    34    1
    17     7    35    1
    18     8     9    1
    19     8    10    1
    20     9    36    1
    21     9    37    1
    22     9    38    1
    23    10    18    1
    24    10    11    2
    25    11    12    1
    26    12    13    2
    27    13    14    1
    28    13    18    1
    29    14    15    1
    30    14    39    1
    31    14    40    1
    32    15    16    1
    33    15    17    1
    34    15    41    1
    35    16    42    1
    36    16    43    1
    37    16    44    1
    38    17    45    1
    39    17    46    1
    40    17    47    1
    41    18    19    1
    42    19    20    1
    43    19    48    1
    44    19    49    1
    45    20    21    1
    46    20    26    1
    47    20    22    1
    48    22    23    1
    49    22    50    1
    50    22    51    1
    51    23    24    1
    52    23    52    1
    53    23    53    1
    54    24    25    1
    55    24    54    1
    56    24    55    1
    57    25    26    1
    58    25    56    1
    59    25    57    1
@<TRIPOS>SUBSTRUCTURE
     1 ZINC000555499135        1 TEMP              0 ****  ****    0 ROOT


##########                                Name:    ZINC001041713551
##########                DOCK_Rotatable_Bonds:                  10
##########                         Heavy_Atoms:                  22
##########                    Molecular_Weight:             330.448
##########                DOCK_Rotatable_Bonds:                  10
##########                       Formal_Charge:          -0.0100006
##########                     HBond_Acceptors:                   7
##########                        HBond_Donors:                   2
##########                         Heavy_Atoms:                  22
##########                          Grid_Score:          -29.059532
##########                     Grid_vdw_energy:          -26.192083
##########                      Grid_es_energy:           -2.867450
##########           Internal_energy_repulsive:            8.480218

@<TRIPOS>MOLECULE
ZINC001041713551
 48 49 1 0 0
SMALL
USER_CHARGES


@<TRIPOS>ATOM
      1 C1         -9.1018    2.0379   66.1749 C.3     1  ZINC001041713551   -0.1500
      2 C2         -8.6283    0.8378   66.9977 C.3     1  ZINC001041713551   -0.1100
      3 C3         -7.7478   -0.0614   66.1278 C.3     1  ZINC001041713551   -0.1000
      4 S4         -8.7539   -0.8043   64.8139 S.3     1  ZINC001041713551   -0.1800
      5 C5         -8.4671    0.3019   63.4052 C.3     1  ZINC001041713551   -0.1300
      6 C6         -9.4810    0.0163   62.3276 C.2     1  ZINC001041713551    0.5300
      7 O7        -10.5779    0.5315   62.3751 O.2     1  ZINC001041713551   -0.5100
      8 N8         -9.1689   -0.8117   61.3110 N.am    1  ZINC001041713551   -0.7300
      9 C9        -10.1540   -1.0881   60.2625 C.3     1  ZINC001041713551    0.1000
     10 C10        -9.4362   -1.2714   58.9238 C.3     1  ZINC001041713551    0.0900
     11 O11        -8.2078   -1.9915   59.0443 O.3     1  ZINC001041713551   -0.5200
     12 C12       -10.3498   -1.7838   57.7957 C.3     1  ZINC001041713551    0.0900
     13 N13        -9.6639   -0.8038   56.9314 N.am    1  ZINC001041713551   -0.6400
     14 C14        -9.4434   -0.7052   55.6054 C.2     1  ZINC001041713551    0.5500
     15 O15        -9.8609   -1.5623   54.8559 O.2     1  ZINC001041713551   -0.5100
     16 C16        -8.6780    0.4702   55.0543 C.3     1  ZINC001041713551    0.0800
     17 H17        -7.8462    0.7059   55.7180 H       1  ZINC001041713551    0.0800
     18 C18        -9.6080    1.6819   54.9512 C.3     1  ZINC001041713551   -0.1500
     19 C19        -8.8393    2.8547   54.3344 C.3     1  ZINC001041713551   -0.1200
     20 C20        -8.2869    2.4280   52.9709 C.3     1  ZINC001041713551   -0.1600
     21 C21        -7.4081    1.1875   53.1505 C.3     1  ZINC001041713551    0.0600
     22 O22        -8.1751    0.1453   53.7568 O.3     1  ZINC001041713551   -0.3600
     23 C23        -9.3166    0.0250   58.1021 C.3     1  ZINC001041713551    0.1200
     24 H24        -9.6760    1.6868   65.3176 H       1  ZINC001041713551    0.0600
     25 H25        -9.7290    2.6785   66.7947 H       1  ZINC001041713551    0.0600
     26 H26        -8.2374    2.6032   65.8264 H       1  ZINC001041713551    0.0600
     27 H27        -8.0540    1.1890   67.8550 H       1  ZINC001041713551    0.0700
     28 H28        -9.4927    0.2726   67.3462 H       1  ZINC001041713551    0.0700
     29 H29        -6.9497    0.5326   65.6824 H       1  ZINC001041713551    0.0800
     30 H30        -7.3140   -0.8498   66.7429 H       1  ZINC001041713551    0.0800
     31 H31        -8.5649    1.3376   63.7309 H       1  ZINC001041713551    0.1100
     32 H32        -7.4636    0.1377   63.0127 H       1  ZINC001041713551    0.1100
     33 H33        -8.2920   -1.2248   61.2737 H       1  ZINC001041713551    0.4000
     34 H34       -10.7013   -1.9980   60.5089 H       1  ZINC001041713551    0.0900
     35 H35       -10.8510   -0.2533   60.1897 H       1  ZINC001041713551    0.0900
     36 H36        -7.5247   -1.5232   59.5435 H       1  ZINC001041713551    0.3800
     37 H37       -10.1642   -2.8212   57.5170 H       1  ZINC001041713551    0.0900
     38 H38       -11.4064   -1.5670   57.9533 H       1  ZINC001041713551    0.1000
     39 H39       -10.4613    1.4336   54.3200 H       1  ZINC001041713551    0.0800
     40 H40        -9.9576    1.9585   55.9459 H       1  ZINC001041713551    0.0800
     41 H41        -9.5108    3.7037   54.2064 H       1  ZINC001041713551    0.0700
     42 H42        -8.0151    3.1355   54.9901 H       1  ZINC001041713551    0.0700
     43 H43        -9.1136    2.1948   52.2998 H       1  ZINC001041713551    0.0700
     44 H44        -7.6918    3.2382   52.5493 H       1  ZINC001041713551    0.0800
     45 H45        -7.0467    0.8541   52.1777 H       1  ZINC001041713551    0.1000
     46 H46        -6.5594    1.4326   53.7892 H       1  ZINC001041713551    0.0500
     47 H47       -10.0697    0.7731   58.3498 H       1  ZINC001041713551    0.1100
     48 H48        -8.3060    0.4318   58.0681 H       1  ZINC001041713551    0.1000
@<TRIPOS>BOND
     1     1     2    1
     2     1    24    1
     3     1    25    1
     4     1    26    1
     5     2     3    1
     6     2    27    1
     7     2    28    1
     8     3     4    1
     9     3    29    1
    10     3    30    1
    11     4     5    1
    12     5     6    1
    13     5    31    1
    14     5    32    1
    15     6     7    2
    16     6     8   am
    17     8     9    1
    18     8    33    1
    19     9    10    1
    20     9    34    1
    21     9    35    1
    22    10    23    1
    23    10    11    1
    24    10    12    1
    25    11    36    1
    26    12    13    1
    27    12    37    1
    28    12    38    1
    29    13    14   am
    30    13    23    1
    31    14    15    2
    32    14    16    1
    33    16    17    1
    34    16    22    1
    35    16    18    1
    36    18    19    1
    37    18    39    1
    38    18    40    1
    39    19    20    1
    40    19    41    1
    41    19    42    1
    42    20    21    1
    43    20    43    1
    44    20    44    1
    45    21    22    1
    46    21    45    1
    47    21    46    1
    48    23    47    1
    49    23    48    1
@<TRIPOS>SUBSTRUCTURE
     1 ZINC001041713551        1 TEMP              0 ****  ****    0 ROOT


##########                                Name:    ZINC000542980334
##########                DOCK_Rotatable_Bonds:                   6
##########                         Heavy_Atoms:                  27
##########                    Molecular_Weight:             404.795
##########                DOCK_Rotatable_Bonds:                   6
##########                       Formal_Charge:           0.0300001
##########                     HBond_Acceptors:                  10
##########                        HBond_Donors:                   1
##########                         Heavy_Atoms:                  27
##########                          Grid_Score:          -29.045401
##########                     Grid_vdw_energy:          -28.479845
##########                      Grid_es_energy:           -0.565556
##########           Internal_energy_repulsive:           10.462035

@<TRIPOS>MOLECULE
ZINC000542980334
 44 46 1 0 0
SMALL
USER_CHARGES


@<TRIPOS>ATOM
      1 O1         -8.2512   -0.5964   59.0764 O.2     1  ZINC000542980334   -0.5800
      2 C2         -8.2656    0.5613   59.4478 C.2     1  ZINC000542980334    0.7100
      3 N3         -8.7141    0.8678   60.6812 N.am    1  ZINC000542980334   -0.7400
      4 C4         -9.1899   -0.1933   61.5723 C.3     1  ZINC000542980334    0.1800
      5 C5         -9.2769    0.3351   62.9810 C.ar    1  ZINC000542980334   -0.1400
      6 C6         -8.3059   -0.0017   63.9081 C.ar    1  ZINC000542980334    0.1300
      7 F7         -7.2796   -0.8044   63.5507 F       1  ZINC000542980334   -0.1200
      8 C8         -8.3868    0.4849   65.2021 C.ar    1  ZINC000542980334   -0.1500
      9 C9         -9.4364    1.3062   65.5672 C.ar    1  ZINC000542980334   -0.0700
     10 C10       -10.4062    1.6425   64.6413 C.ar    1  ZINC000542980334   -0.1200
     11 C11       -10.3242    1.1616   63.3466 C.ar    1  ZINC000542980334    0.0100
     12 Cl12      -11.5423    1.5851   62.1845 Cl      1  ZINC000542980334   -0.0400
     13 N13        -7.8280    1.5375   58.6281 N.am    1  ZINC000542980334   -0.6300
     14 C14        -7.8336    2.9403   59.0648 C.3     1  ZINC000542980334    0.1100
     15 C15        -8.5884    3.7768   58.0268 C.3     1  ZINC000542980334   -0.1300
     16 C16        -7.9676    3.5508   56.6464 C.3     1  ZINC000542980334   -0.1300
     17 C17        -8.0958    2.0748   56.2630 C.3     1  ZINC000542980334    0.1400
     18 H18        -9.1478    1.7893   56.2613 H       1  ZINC000542980334    0.1100
     19 N19        -7.5303    1.8655   54.9278 N.pl3   1  ZINC000542980334   -0.3400
     20 C20        -7.8475    0.8653   54.0791 C.2     1  ZINC000542980334    0.0600
     21 C21        -7.1088    1.0269   52.9569 C.2     1  ZINC000542980334   -0.2300
     22 C22        -6.3130    2.1647   53.1255 C.2     1  ZINC000542980334   -0.0200
     23 C23        -5.3346    2.7155   52.1204 C.3     1  ZINC000542980334    0.5600
     24 F24        -4.9583    1.7021   51.2323 F       1  ZINC000542980334   -0.1700
     25 F25        -5.9350    3.7598   51.4090 F       1  ZINC000542980334   -0.1700
     26 F26        -4.2021    3.1958   52.7867 F       1  ZINC000542980334   -0.1600
     27 N27        -6.5693    2.6716   54.3042 N.2     1  ZINC000542980334   -0.2300
     28 C28        -7.3303    1.2184   57.2831 C.3     1  ZINC000542980334    0.1300
     29 H29        -8.7220    1.7910   60.9790 H       1  ZINC000542980334    0.4000
     30 H30       -10.1758   -0.5257   61.2474 H       1  ZINC000542980334    0.0900
     31 H31        -8.4951   -1.0325   61.5413 H       1  ZINC000542980334    0.0900
     32 H32        -7.6296    0.2222   65.9261 H       1  ZINC000542980334    0.1500
     33 H33        -9.4993    1.6852   66.5765 H       1  ZINC000542980334    0.1500
     34 H34       -11.2264    2.2841   64.9276 H       1  ZINC000542980334    0.1500
     35 H35        -8.3321    3.0202   60.0309 H       1  ZINC000542980334    0.0800
     36 H36        -6.8085    3.3010   59.1493 H       1  ZINC000542980334    0.0800
     37 H37        -9.6358    3.4754   58.0085 H       1  ZINC000542980334    0.0800
     38 H38        -8.5177    4.8324   58.2892 H       1  ZINC000542980334    0.0900
     39 H39        -8.4871    4.1638   55.9098 H       1  ZINC000542980334    0.0800
     40 H40        -6.9141    3.8291   56.6720 H       1  ZINC000542980334    0.0800
     41 H41        -8.5625    0.0770   54.2628 H       1  ZINC000542980334    0.1900
     42 H42        -7.1296    0.3895   52.0853 H       1  ZINC000542980334    0.1600
     43 H43        -6.2649    1.4399   57.2198 H       1  ZINC000542980334    0.0800
     44 H44        -7.4991    0.1621   57.0734 H       1  ZINC000542980334    0.1100
@<TRIPOS>BOND
     1     1     2    2
     2     2     3   am
     3     2    13   am
     4     3     4    1
     5     3    29    1
     6     4     5    1
     7     4    30    1
     8     4    31    1
     9     5    11   ar
    10     5     6   ar
    11     6     7    1
    12     6     8   ar
    13     8     9   ar
    14     8    32    1
    15     9    10   ar
    16     9    33    1
    17    10    11   ar
    18    10    34    1
    19    11    12    1
    20    13    28    1
    21    13    14    1
    22    14    15    1
    23    14    35    1
    24    14    36    1
    25    15    16    1
    26    15    37    1
    27    15    38    1
    28    16    17    1
    29    16    39    1
    30    16    40    1
    31    17    18    1
    32    17    19    1
    33    17    28    1
    34    19    27    1
    35    19    20    1
    36    20    21    2
    37    20    41    1
    38    21    22    1
    39    21    42    1
    40    22    23    1
    41    22    27    2
    42    23    24    1
    43    23    25    1
    44    23    26    1
    45    28    43    1
    46    28    44    1
@<TRIPOS>SUBSTRUCTURE
     1 ZINC000542980334        1 TEMP              0 ****  ****    0 ROOT


##########                                Name:    ZINC000550011575
##########                DOCK_Rotatable_Bonds:                   6
##########                         Heavy_Atoms:                  28
##########                    Molecular_Weight:             423.935
##########                DOCK_Rotatable_Bonds:                   6
##########                       Formal_Charge:          -0.0100002
##########                     HBond_Acceptors:                   7
##########                        HBond_Donors:                   0
##########                         Heavy_Atoms:                  28
##########                          Grid_Score:          -29.023155
##########                     Grid_vdw_energy:          -28.782877
##########                      Grid_es_energy:           -0.240279
##########           Internal_energy_repulsive:           34.542885

@<TRIPOS>MOLECULE
ZINC000550011575
 51 53 1 0 0
SMALL
USER_CHARGES


@<TRIPOS>ATOM
      1 C1         -9.4677    2.9000   59.2246 C.3     1  ZINC000550011575   -0.1400
      2 C2         -9.1144    1.4687   58.8153 C.3     1  ZINC000550011575   -0.6100
      3 H3         -8.1294    1.2120   59.2053 H       1  ZINC000550011575    0.1500
      4 C4        -10.1403    0.5180   59.3763 C.2     1  ZINC000550011575    0.5400
      5 O5        -11.3072    0.8446   59.4248 O.2     1  ZINC000550011575   -0.5100
      6 N6         -9.7609   -0.6952   59.8242 N.am    1  ZINC000550011575   -0.6000
      7 C7         -8.3510   -1.0891   59.7672 C.3     1  ZINC000550011575    0.0600
      8 C8        -10.7585   -1.6201   60.3679 C.3     1  ZINC000550011575    0.1500
      9 C9        -11.6574   -2.0994   59.2572 C.ar    1  ZINC000550011575   -0.1500
     10 C10       -11.1325   -2.8407   58.2128 C.ar    1  ZINC000550011575    0.1400
     11 F11        -9.8141   -3.1349   58.1883 F       1  ZINC000550011575   -0.1100
     12 C12       -11.9597   -3.2809   57.1931 C.ar    1  ZINC000550011575   -0.1500
     13 C13       -13.3082   -2.9802   57.2187 C.ar    1  ZINC000550011575   -0.0700
     14 C14       -13.8324   -2.2398   58.2620 C.ar    1  ZINC000550011575   -0.1300
     15 C15       -13.0085   -1.8036   59.2840 C.ar    1  ZINC000550011575    0.0000
     16 Cl16      -13.6678   -0.8746   60.5940 Cl      1  ZINC000550011575   -0.0500
     17 S17        -9.0995    1.3434   57.0056 S.o2    1  ZINC000550011575    2.4500
     18 O18        -9.5882    0.0611   56.6366 O.2     1  ZINC000550011575   -0.9200
     19 O19        -9.7183    2.5033   56.4664 O.2     1  ZINC000550011575   -0.9100
     20 C20        -7.3242    1.4125   56.6399 C.3     1  ZINC000550011575   -0.5300
     21 H21        -6.8682    0.4544   56.8894 H       1  ZINC000550011575    0.1500
     22 C22        -6.6789    2.5116   57.4815 C.3     1  ZINC000550011575   -0.1100
     23 C23        -5.2341    2.7013   57.0049 C.3     1  ZINC000550011575   -0.1100
     24 C24        -5.2641    3.3358   55.6159 C.3     1  ZINC000550011575   -0.0900
     25 C25        -6.1781    2.5635   54.7008 C.ar    1  ZINC000550011575   -0.0600
     26 C26        -6.0390    2.7586   53.3330 C.ar    1  ZINC000550011575   -0.1200
     27 C27        -6.8499    2.0851   52.4427 C.ar    1  ZINC000550011575   -0.1100
     28 C28        -7.8094    1.2095   52.9153 C.ar    1  ZINC000550011575   -0.1100
     29 C29        -7.9475    1.0125   54.2740 C.ar    1  ZINC000550011575   -0.1500
     30 C30        -7.1298    1.6875   55.1716 C.ar    1  ZINC000550011575   -0.0800
     31 H31        -8.6460    3.5663   58.9620 H       1  ZINC000550011575    0.0900
     32 H32       -10.3714    3.2145   58.7025 H       1  ZINC000550011575    0.0900
     33 H33        -9.6375    2.9388   60.3005 H       1  ZINC000550011575    0.0800
     34 H34        -7.8538   -0.7944   60.6913 H       1  ZINC000550011575    0.0700
     35 H35        -8.2804   -2.1700   59.6454 H       1  ZINC000550011575    0.0800
     36 H36        -7.8699   -0.5961   58.9225 H       1  ZINC000550011575    0.0700
     37 H37       -10.2539   -2.4736   60.8207 H       1  ZINC000550011575    0.1000
     38 H38       -11.3551   -1.1083   61.1229 H       1  ZINC000550011575    0.1100
     39 H39       -11.5508   -3.8591   56.3777 H       1  ZINC000550011575    0.1500
     40 H40       -13.9529   -3.3234   56.4231 H       1  ZINC000550011575    0.1500
     41 H41       -14.8864   -2.0050   58.2808 H       1  ZINC000550011575    0.1400
     42 H42        -7.2320    3.4425   57.3559 H       1  ZINC000550011575    0.0800
     43 H43        -6.6837    2.2202   58.5318 H       1  ZINC000550011575    0.0900
     44 H44        -4.7025    3.3555   57.6959 H       1  ZINC000550011575    0.0800
     45 H45        -4.7338    1.7341   56.9559 H       1  ZINC000550011575    0.0700
     46 H46        -5.6208    4.3625   55.6973 H       1  ZINC000550011575    0.0800
     47 H47        -4.2567    3.3377   55.1998 H       1  ZINC000550011575    0.0800
     48 H48        -5.2902    3.4433   52.9631 H       1  ZINC000550011575    0.1300
     49 H49        -6.7356    2.2418   51.3802 H       1  ZINC000550011575    0.1300
     50 H50        -8.4490    0.6816   52.2235 H       1  ZINC000550011575    0.1300
     51 H51        -8.6977    0.3287   54.6425 H       1  ZINC000550011575    0.1700
@<TRIPOS>BOND
     1     1     2    1
     2     1    31    1
     3     1    32    1
     4     1    33    1
     5     2     3    1
     6     2     4    1
     7     2    17    1
     8     4     5    2
     9     4     6   am
    10     6     7    1
    11     6     8    1
    12     7    34    1
    13     7    35    1
    14     7    36    1
    15     8     9    1
    16     8    37    1
    17     8    38    1
    18     9    15   ar
    19     9    10   ar
    20    10    11    1
    21    10    12   ar
    22    12    13   ar
    23    12    39    1
    24    13    14   ar
    25    13    40    1
    26    14    15   ar
    27    14    41    1
    28    15    16    1
    29    17    18    2
    30    17    19    2
    31    17    20    1
    32    20    21    1
    33    20    30    1
    34    20    22    1
    35    22    23    1
    36    22    42    1
    37    22    43    1
    38    23    24    1
    39    23    44    1
    40    23    45    1
    41    24    25    1
    42    24    46    1
    43    24    47    1
    44    25    30   ar
    45    25    26   ar
    46    26    27   ar
    47    26    48    1
    48    27    28   ar
    49    27    49    1
    50    28    29   ar
    51    28    50    1
    52    29    30   ar
    53    29    51    1
@<TRIPOS>SUBSTRUCTURE
     1 ZINC000550011575        1 TEMP              0 ****  ****    0 ROOT


##########                                Name:    ZINC000851838607
##########                DOCK_Rotatable_Bonds:                  12
##########                         Heavy_Atoms:                  23
##########                    Molecular_Weight:             352.495
##########                DOCK_Rotatable_Bonds:                  12
##########                       Formal_Charge:          0.00999896
##########                     HBond_Acceptors:                   8
##########                        HBond_Donors:                   2
##########                         Heavy_Atoms:                  23
##########                          Grid_Score:          -29.022856
##########                     Grid_vdw_energy:          -28.477453
##########                      Grid_es_energy:           -0.545402
##########           Internal_energy_repulsive:           24.083975

@<TRIPOS>MOLECULE
ZINC000851838607
 55 54 1 0 0
SMALL
USER_CHARGES


@<TRIPOS>ATOM
      1 C1        -13.3574    0.4959   61.1416 C.3     1  ZINC000851838607    0.0300
      2 O2        -12.8962    0.0910   59.8511 O.3     1  ZINC000851838607   -0.3800
      3 C3        -13.8489   -0.6695   59.1055 C.3     1  ZINC000851838607    0.0800
      4 C4        -13.6416   -2.1598   59.3831 C.3     1  ZINC000851838607   -0.6000
      5 H5        -12.7067   -2.3017   59.9253 H       1  ZINC000851838607    0.1400
      6 C6        -14.8047   -2.6884   60.2250 C.3     1  ZINC000851838607   -0.1400
      7 S7        -13.5725   -3.0637   57.8118 S.o2    1  ZINC000851838607    2.6200
      8 O8        -14.1367   -4.3597   57.9570 O.2     1  ZINC000851838607   -0.9400
      9 O9        -13.9476   -2.2180   56.7333 O.2     1  ZINC000851838607   -0.9500
     10 N10       -11.9590   -3.3455   57.5679 N.am    1  ZINC000851838607   -1.1200
     11 C11       -11.0270   -2.2204   57.4598 C.3     1  ZINC000851838607    0.1100
     12 C12       -10.4811   -2.1456   56.0325 C.3     1  ZINC000851838607   -0.1400
     13 C13       -10.3888   -0.6816   55.5977 C.3     1  ZINC000851838607    0.1700
     14 H14       -11.1146   -0.0904   56.1560 H       1  ZINC000851838607    0.1000
     15 N15        -9.0394   -0.1773   55.8642 N.am    1  ZINC000851838607   -0.7100
     16 C16        -8.7270    0.2987   57.0858 C.2     1  ZINC000851838607    0.6500
     17 O17        -9.5651    0.3110   57.9657 O.2     1  ZINC000851838607   -0.5600
     18 O18        -7.4865    0.7607   57.3313 O.3     1  ZINC000851838607   -0.3700
     19 C19        -7.2953    2.1989   57.2735 C.3     1  ZINC000851838607    0.1400
     20 C20        -7.9687    2.7530   56.0164 C.3     1  ZINC000851838607   -0.1800
     21 C21        -7.9170    2.8463   58.5126 C.3     1  ZINC000851838607   -0.1400
     22 C22        -5.7985    2.5131   57.2308 C.3     1  ZINC000851838607   -0.1800
     23 C23       -10.6869   -0.5744   54.1009 C.3     1  ZINC000851838607   -0.1100
     24 C24       -10.7944    0.9001   53.7067 C.3     1  ZINC000851838607   -0.1500
     25 C25        -9.5569   -1.2334   53.3073 C.3     1  ZINC000851838607   -0.1400
     26 H26       -14.2479    1.1149   61.0314 H       1  ZINC000851838607    0.0400
     27 H27       -13.5995   -0.3863   61.7342 H       1  ZINC000851838607    0.0500
     28 H28       -12.5770    1.0679   61.6434 H       1  ZINC000851838607    0.0900
     29 H29       -14.8570   -0.3813   59.4034 H       1  ZINC000851838607    0.0700
     30 H30       -13.7152   -0.4761   58.0411 H       1  ZINC000851838607    0.0600
     31 H31       -14.7046   -3.7670   60.3461 H       1  ZINC000851838607    0.0700
     32 H32       -14.7913   -2.2099   61.2042 H       1  ZINC000851838607    0.0900
     33 H33       -15.7467   -2.4648   59.7241 H       1  ZINC000851838607    0.0700
     34 H34       -11.6309   -4.2556   57.4967 H       1  ZINC000851838607    0.4200
     35 H35       -11.5477   -1.2931   57.6988 H       1  ZINC000851838607    0.0700
     36 H36       -10.2018   -2.3638   58.1574 H       1  ZINC000851838607    0.0800
     37 H37        -9.4900   -2.5980   55.9984 H       1  ZINC000851838607    0.0800
     38 H38       -11.1490   -2.6831   55.3594 H       1  ZINC000851838607    0.1000
     39 H39        -8.3708   -0.1860   55.1616 H       1  ZINC000851838607    0.4100
     40 H40        -9.0351    2.5292   56.0468 H       1  ZINC000851838607    0.0600
     41 H41        -7.8251    3.8326   55.9731 H       1  ZINC000851838607    0.0700
     42 H42        -7.5257    2.2918   55.1337 H       1  ZINC000851838607    0.0900
     43 H43        -7.4373    2.4515   59.4083 H       1  ZINC000851838607    0.0700
     44 H44        -7.7735    3.9259   58.4693 H       1  ZINC000851838607    0.0800
     45 H45        -8.9834    2.6225   58.5430 H       1  ZINC000851838607    0.0700
     46 H46        -5.3554    2.0520   56.3481 H       1  ZINC000851838607    0.0900
     47 H47        -5.6549    3.5928   57.1875 H       1  ZINC000851838607    0.0700
     48 H48        -5.3186    2.1184   58.1265 H       1  ZINC000851838607    0.0600
     49 H49       -11.6277   -1.0788   53.8807 H       1  ZINC000851838607    0.0700
     50 H50        -9.8536    1.4045   53.9269 H       1  ZINC000851838607    0.0600
     51 H51       -11.0067    0.9765   52.6403 H       1  ZINC000851838607    0.0600
     52 H52       -11.5994    1.3696   54.2720 H       1  ZINC000851838607    0.0600
     53 H53        -9.4803   -2.2838   53.5882 H       1  ZINC000851838607    0.0500
     54 H54        -9.7692   -1.1569   52.2410 H       1  ZINC000851838607    0.0500
     55 H55        -8.6161   -0.7289   53.5275 H       1  ZINC000851838607    0.0700
@<TRIPOS>BOND
     1     1     2    1
     2     1    26    1
     3     1    27    1
     4     1    28    1
     5     2     3    1
     6     3     4    1
     7     3    29    1
     8     3    30    1
     9     4     5    1
    10     4     6    1
    11     4     7    1
    12     6    31    1
    13     6    32    1
    14     6    33    1
    15     7     8    2
    16     7     9    2
    17     7    10   am
    18    10    11    1
    19    10    34    1
    20    11    12    1
    21    11    35    1
    22    11    36    1
    23    12    13    1
    24    12    37    1
    25    12    38    1
    26    13    14    1
    27    13    15    1
    28    13    23    1
    29    15    16   am
    30    15    39    1
    31    16    17    2
    32    16    18    1
    33    18    19    1
    34    19    20    1
    35    19    21    1
    36    19    22    1
    37    20    40    1
    38    20    41    1
    39    20    42    1
    40    21    43    1
    41    21    44    1
    42    21    45    1
    43    22    46    1
    44    22    47    1
    45    22    48    1
    46    23    24    1
    47    23    25    1
    48    23    49    1
    49    24    50    1
    50    24    51    1
    51    24    52    1
    52    25    53    1
    53    25    54    1
    54    25    55    1
@<TRIPOS>SUBSTRUCTURE
     1 ZINC000851838607        1 TEMP              0 ****  ****    0 ROOT


##########                                Name:    ZINC001082278299
##########                DOCK_Rotatable_Bonds:                   9
##########                         Heavy_Atoms:                  25
##########                    Molecular_Weight:              346.47
##########                DOCK_Rotatable_Bonds:                   9
##########                       Formal_Charge:           0.0200001
##########                     HBond_Acceptors:                   5
##########                        HBond_Donors:                   1
##########                         Heavy_Atoms:                  25
##########                          Grid_Score:          -28.987946
##########                     Grid_vdw_energy:          -28.310747
##########                      Grid_es_energy:           -0.677198
##########           Internal_energy_repulsive:           95.835548

@<TRIPOS>MOLECULE
ZINC001082278299
 55 57 1 0 0
SMALL
USER_CHARGES


@<TRIPOS>ATOM
      1 C1         -8.5944    0.1186   65.6936 C.3     1  ZINC001082278299   -0.1300
      2 C2         -9.0078    0.3995   64.2720 C.2     1  ZINC001082278299    0.0000
      3 C3         -8.2921   -0.0879   63.2626 C.2     1  ZINC001082278299   -0.2300
      4 C4         -8.6956    0.1862   61.8748 C.2     1  ZINC001082278299    0.5400
      5 O5         -9.3339    1.1879   61.6138 O.2     1  ZINC001082278299   -0.5300
      6 N6         -8.3580   -0.6727   60.8926 N.am    1  ZINC001082278299   -0.7400
      7 C7         -8.7584   -0.3987   59.5103 C.3     1  ZINC001082278299    0.1300
      8 C8        -10.2615   -0.6401   59.3575 C.3     1  ZINC001082278299    0.1400
      9 H9        -10.8113    0.0973   59.9423 H       1  ZINC001082278299    0.0800
     10 C10       -10.6082   -2.0485   59.8503 C.3     1  ZINC001082278299   -0.1300
     11 C11       -12.0846   -2.3349   59.5669 C.3     1  ZINC001082278299   -0.1200
     12 C12       -12.3372   -2.2751   58.0588 C.3     1  ZINC001082278299   -0.1400
     13 C13       -12.0102   -0.8692   57.5456 C.3     1  ZINC001082278299    0.1100
     14 N14       -10.6373   -0.5256   57.9417 N.am    1  ZINC001082278299   -0.6100
     15 C15        -9.7391   -0.1183   57.0232 C.2     1  ZINC001082278299    0.5100
     16 O16        -8.6093    0.1626   57.3627 O.2     1  ZINC001082278299   -0.5100
     17 C17       -10.1389   -0.0116   55.5740 C.3     1  ZINC001082278299   -0.1100
     18 C18        -9.0760    0.7388   54.8137 C.2     1  ZINC001082278299   -0.0900
     19 C19        -8.3941    0.1074   53.9048 C.2     1  ZINC001082278299   -0.1800
     20 C20        -7.3084    0.7619   53.0988 C.3     1  ZINC001082278299    0.0900
     21 O21        -7.3993    2.1833   53.2136 O.3     1  ZINC001082278299   -0.3800
     22 C22        -7.4911    2.6311   54.5718 C.3     1  ZINC001082278299    0.0600
     23 C23        -8.8489    2.1911   55.1311 C.3     1  ZINC001082278299   -0.1100
     24 C24       -10.2323    1.2328   63.9940 C.3     1  ZINC001082278299   -0.1200
     25 C25       -10.7214    2.1628   65.1061 C.3     1  ZINC001082278299   -0.1900
     26 C26       -10.0431    2.7455   63.8645 C.3     1  ZINC001082278299   -0.1500
     27 H27        -7.9165    0.9006   66.0361 H       1  ZINC001082278299    0.0800
     28 H28        -9.4778    0.0986   66.3318 H       1  ZINC001082278299    0.0800
     29 H29        -8.0897   -0.8464   65.7414 H       1  ZINC001082278299    0.0700
     30 H30        -7.4145   -0.6851   63.4618 H       1  ZINC001082278299    0.1300
     31 H31        -7.8499   -1.4723   61.1010 H       1  ZINC001082278299    0.3900
     32 H32        -8.5302    0.6384   59.2647 H       1  ZINC001082278299    0.0900
     33 H33        -8.2139   -1.0600   58.8364 H       1  ZINC001082278299    0.0800
     34 H34        -9.9894   -2.7790   59.3292 H       1  ZINC001082278299    0.0700
     35 H35       -10.4241   -2.1144   60.9227 H       1  ZINC001082278299    0.0800
     36 H36       -12.3400   -3.3271   59.9389 H       1  ZINC001082278299    0.0700
     37 H37       -12.7018   -1.5894   60.0683 H       1  ZINC001082278299    0.0700
     38 H38       -11.7022   -3.0034   57.5544 H       1  ZINC001082278299    0.0700
     39 H39       -13.3838   -2.5022   57.8559 H       1  ZINC001082278299    0.0800
     40 H40       -12.0931   -0.8484   56.4590 H       1  ZINC001082278299    0.0900
     41 H41       -12.7046   -0.1507   57.9809 H       1  ZINC001082278299    0.0700
     42 H42       -10.2495   -1.0110   55.1532 H       1  ZINC001082278299    0.1000
     43 H43       -11.0861    0.5220   55.4968 H       1  ZINC001082278299    0.1000
     44 H44        -8.6177   -0.9332   53.7214 H       1  ZINC001082278299    0.1100
     45 H45        -6.3367    0.4311   53.4657 H       1  ZINC001082278299    0.0600
     46 H46        -7.4133    0.4764   52.0521 H       1  ZINC001082278299    0.1000
     47 H47        -6.6868    2.1886   55.1594 H       1  ZINC001082278299    0.0600
     48 H48        -7.4162    3.7180   54.6059 H       1  ZINC001082278299    0.1000
     49 H49        -9.6386    2.7947   54.6836 H       1  ZINC001082278299    0.0800
     50 H50        -8.8573    2.3271   56.2126 H       1  ZINC001082278299    0.0800
     51 H51       -10.9864    0.7639   63.3617 H       1  ZINC001082278299    0.1300
     52 H52       -11.7972    2.3060   65.2057 H       1  ZINC001082278299    0.1000
     53 H53       -10.1573    2.1720   66.0388 H       1  ZINC001082278299    0.1000
     54 H54        -9.0328    3.1380   63.9805 H       1  ZINC001082278299    0.0900
     55 H55       -10.6727    3.2719   63.1474 H       1  ZINC001082278299    0.1000
@<TRIPOS>BOND
     1     1     2    1
     2     1    27    1
     3     1    28    1
     4     1    29    1
     5     2     3    2
     6     2    24    1
     7     3     4    1
     8     3    30    1
     9     4     5    2
    10     4     6   am
    11     6     7    1
    12     6    31    1
    13     7     8    1
    14     7    32    1
    15     7    33    1
    16     8     9    1
    17     8    14    1
    18     8    10    1
    19    10    11    1
    20    10    34    1
    21    10    35    1
    22    11    12    1
    23    11    36    1
    24    11    37    1
    25    12    13    1
    26    12    38    1
    27    12    39    1
    28    13    14    1
    29    13    40    1
    30    13    41    1
    31    14    15   am
    32    15    16    2
    33    15    17    1
    34    17    18    1
    35    17    42    1
    36    17    43    1
    37    18    23    1
    38    18    19    2
    39    19    20    1
    40    19    44    1
    41    20    21    1
    42    20    45    1
    43    20    46    1
    44    21    22    1
    45    22    23    1
    46    22    47    1
    47    22    48    1
    48    23    49    1
    49    23    50    1
    50    24    26    1
    51    24    25    1
    52    24    51    1
    53    25    26    1
    54    25    52    1
    55    25    53    1
    56    26    54    1
    57    26    55    1
@<TRIPOS>SUBSTRUCTURE
     1 ZINC001082278299        1 TEMP              0 ****  ****    0 ROOT


##########                                Name:    ZINC000355549087
##########                DOCK_Rotatable_Bonds:                   9
##########                         Heavy_Atoms:                  23
##########                    Molecular_Weight:             336.415
##########                DOCK_Rotatable_Bonds:                   9
##########                       Formal_Charge:        -9.53674e-07
##########                     HBond_Acceptors:                   8
##########                        HBond_Donors:                   4
##########                         Heavy_Atoms:                  23
##########                          Grid_Score:          -28.973965
##########                     Grid_vdw_energy:          -28.123526
##########                      Grid_es_energy:           -0.850440
##########           Internal_energy_repulsive:           22.164267

@<TRIPOS>MOLECULE
ZINC000355549087
 43 44 1 0 0
SMALL
USER_CHARGES


@<TRIPOS>ATOM
      1 C1        -16.2486   -1.1779   59.9793 C.3     1  <0>        -0.1500
      2 C2        -15.4619   -1.8320   58.8417 C.3     1  <0>        -0.1200
      3 C3        -14.1916   -2.4737   59.4034 C.3     1  <0>        -0.1000
      4 H4        -14.4619   -3.2296   60.1408 H       1  <0>         0.0800
      5 C5        -13.3280   -1.3993   60.0672 C.3     1  <0>        -0.1500
      6 C6        -13.4055   -3.1291   58.2659 C.3     1  <0>         0.0900
      7 H7        -12.5093   -3.6011   58.6685 H       1  <0>         0.1000
      8 O8        -14.2201   -4.1168   57.6313 O.3     1  <0>        -0.3500
      9 C9        -13.5057   -4.9723   56.7371 C.3     1  <0>         0.0200
     10 C10       -13.0113   -2.0800   57.2584 C.2     1  <0>         0.5100
     11 O11       -13.8293   -1.6622   56.4664 O.2     1  <0>        -0.4800
     12 N12       -11.7497   -1.6061   57.2373 N.am    1  <0>        -0.6200
     13 C13       -11.3867   -0.6376   56.3093 C.2     1  <0>         0.2400
     14 N14       -10.4162   -0.7546   55.4603 N.2     1  <0>        -0.5000
     15 C15       -10.2064    0.2693   54.6435 C.2     1  <0>         0.1700
     16 C16        -9.1307    0.2773   53.6194 C.2     1  <0>        -0.1100
     17 C17        -8.7350   -0.7832   52.8556 C.2     1  <0>         0.0600
     18 N18        -7.7295   -0.3765   52.0426 N.pl3   1  <0>        -0.5400
     19 C19        -7.4746    0.9546   52.2831 C.2     1  <0>        -0.0600
     20 C20        -6.4600    1.7737   51.6106 C.2     1  <0>         0.5900
     21 N21        -5.1516    1.5584   51.8523 N.am    1  <0>        -0.8600
     22 O22        -6.7997    2.6475   50.8347 O.2     1  <0>        -0.5300
     23 C23        -8.3368    1.3808   53.2545 C.2     1  <0>        -0.0600
     24 C24       -11.0523    1.2998   54.8230 C.2     1  <0>        -0.3200
     25 S25       -12.1627    0.8736   56.1223 S.3     1  <0>         0.2500
     26 H26       -17.1536   -0.7207   59.5792 H       1  <0>         0.0600
     27 H27       -16.5188   -1.9343   60.7161 H       1  <0>         0.0600
     28 H28       -15.6338   -0.4125   60.4530 H       1  <0>         0.0600
     29 H29       -16.0766   -2.5973   58.3681 H       1  <0>         0.0600
     30 H30       -15.1917   -1.0756   58.1049 H       1  <0>         0.0700
     31 H31       -13.0578   -0.6435   59.3297 H       1  <0>         0.0700
     32 H32       -13.8880   -0.9325   60.8775 H       1  <0>         0.0600
     33 H33       -12.4230   -1.8565   60.4674 H       1  <0>         0.0500
     34 H34       -14.2083   -5.6275   56.2220 H       1  <0>         0.0900
     35 H35       -12.9700   -4.3672   56.0057 H       1  <0>         0.0500
     36 H36       -12.7939   -5.5748   57.3015 H       1  <0>         0.0500
     37 H37       -11.0952   -1.9412   57.8700 H       1  <0>         0.4200
     38 H38        -9.1529   -1.7784   52.8930 H       1  <0>         0.1800
     39 H39        -7.2655   -0.9325   51.3973 H       1  <0>         0.4200
     40 H40        -4.4808    2.0992   51.4067 H       1  <0>         0.4000
     41 H41        -4.8808    0.8627   52.4716 H       1  <0>         0.4100
     42 H42        -8.3938    2.3765   53.6691 H       1  <0>         0.1500
     43 H43       -11.0529    2.2248   54.2656 H       1  <0>         0.1800
@<TRIPOS>BOND
     1     1     2    1
     2     1    26    1
     3     1    27    1
     4     1    28    1
     5     2     3    1
     6     2    29    1
     7     2    30    1
     8     3     4    1
     9     3     5    1
    10     3     6    1
    11     5    31    1
    12     5    32    1
    13     5    33    1
    14     6     7    1
    15     6     8    1
    16     6    10    1
    17     8     9    1
    18     9    34    1
    19     9    35    1
    20     9    36    1
    21    10    11    2
    22    10    12   am
    23    12    13    1
    24    12    37    1
    25    13    25    1
    26    13    14    2
    27    14    15    1
    28    15    16    1
    29    15    24    2
    30    16    23    1
    31    16    17    2
    32    17    18    1
    33    17    38    1
    34    18    19    1
    35    18    39    1
    36    19    20    1
    37    19    23    2
    38    20    21   am
    39    20    22    2
    40    21    40    1
    41    21    41    1
    42    23    42    1
    43    24    25    1
    44    24    43    1
@<TRIPOS>SUBSTRUCTURE
     1 <0>         1 TEMP              0 ****  ****    0 ROOT


##########                                Name:    ZINC000467104849
##########                DOCK_Rotatable_Bonds:                   6
##########                         Heavy_Atoms:                  29
##########                    Molecular_Weight:             421.896
##########                DOCK_Rotatable_Bonds:                   6
##########                       Formal_Charge:           0.0200002
##########                     HBond_Acceptors:                   7
##########                        HBond_Donors:                   0
##########                         Heavy_Atoms:                  29
##########                          Grid_Score:          -28.957724
##########                     Grid_vdw_energy:          -28.035727
##########                      Grid_es_energy:           -0.921998
##########           Internal_energy_repulsive:           65.008865

@<TRIPOS>MOLECULE
ZINC000467104849
 54 56 1 0 0
SMALL
USER_CHARGES


@<TRIPOS>ATOM
      1 C1         -9.9344   -0.9035   52.7800 C.3     1  ZINC000467104849    0.0200
      2 O2         -9.9008   -1.6513   53.9973 O.3     1  ZINC000467104849   -0.3000
      3 C3        -10.5812   -1.1371   55.0567 C.ar    1  ZINC000467104849    0.1000
      4 C4        -11.1556    0.1203   54.9687 C.ar    1  ZINC000467104849   -0.1700
      5 C5        -11.8475    0.6414   56.0466 C.ar    1  ZINC000467104849   -0.1200
      6 C6        -11.9673   -0.0895   57.2135 C.ar    1  ZINC000467104849   -0.0800
      7 C7        -12.7219    0.4834   58.3854 C.3     1  ZINC000467104849   -0.0400
      8 C8        -12.7105    2.0110   58.3018 C.3     1  ZINC000467104849   -0.1300
      9 C9        -14.1671   -0.0181   58.3558 C.3     1  ZINC000467104849   -0.1600
     10 C10       -12.0644    0.0455   59.6687 C.2     1  ZINC000467104849    0.5300
     11 O11       -12.7074   -0.5496   60.5073 O.2     1  ZINC000467104849   -0.5300
     12 N12       -10.7617    0.3154   59.8846 N.am    1  ZINC000467104849   -0.6100
     13 C13       -10.0979   -0.1020   61.1298 C.3     1  ZINC000467104849    0.0600
     14 C14        -8.8067   -0.8430   60.7645 C.3     1  ZINC000467104849    0.0500
     15 O15        -8.0350   -0.0333   59.8743 O.3     1  ZINC000467104849   -0.3700
     16 C16        -8.6763    0.2390   58.6260 C.3     1  ZINC000467104849    0.1300
     17 H17        -8.9229   -0.7003   58.1308 H       1  ZINC000467104849    0.0800
     18 C18        -7.7508    1.0424   57.7492 C.ar    1  ZINC000467104849   -0.0900
     19 C19        -7.6052    0.7133   56.4146 C.ar    1  ZINC000467104849   -0.0500
     20 C20        -6.7567    1.4492   55.6087 C.ar    1  ZINC000467104849   -0.1400
     21 C21        -6.0526    2.5166   56.1383 C.ar    1  ZINC000467104849    0.1200
     22 F22        -5.2234    3.2367   55.3514 F       1  ZINC000467104849   -0.1200
     23 C23        -6.1992    2.8464   57.4763 C.ar    1  ZINC000467104849   -0.0800
     24 Cl24       -5.3172    4.1848   58.1429 Cl      1  ZINC000467104849   -0.0400
     25 C25        -7.0524    2.1115   58.2790 C.ar    1  ZINC000467104849   -0.0700
     26 C26        -9.9595    1.0305   58.8794 C.3     1  ZINC000467104849    0.0900
     27 C27       -11.3967   -1.3457   57.3079 C.ar    1  ZINC000467104849   -0.1600
     28 C28       -10.7068   -1.8757   56.2298 C.ar    1  ZINC000467104849    0.1100
     29 O29       -10.1450   -3.1109   56.3210 O.3     1  ZINC000467104849   -0.3000
     30 C30       -10.3215   -3.8146   57.5521 C.3     1  ZINC000467104849    0.0200
     31 H31        -9.3537   -1.4234   52.0181 H       1  ZINC000467104849    0.1000
     32 H32       -10.9665   -0.8023   52.4441 H       1  ZINC000467104849    0.0600
     33 H33        -9.5089    0.0856   52.9493 H       1  ZINC000467104849    0.0600
     34 H34       -11.0627    0.6939   54.0583 H       1  ZINC000467104849    0.1400
     35 H35       -12.2948    1.6219   55.9767 H       1  ZINC000467104849    0.1300
     36 H36       -13.2632    2.3308   57.4184 H       1  ZINC000467104849    0.0700
     37 H37       -13.1787    2.4273   59.1938 H       1  ZINC000467104849    0.0700
     38 H38       -11.6812    2.3635   58.2337 H       1  ZINC000467104849    0.0700
     39 H39       -14.1801   -1.0979   58.5047 H       1  ZINC000467104849    0.0700
     40 H40       -14.7357    0.4650   59.1503 H       1  ZINC000467104849    0.0700
     41 H41       -14.6150    0.2211   57.3913 H       1  ZINC000467104849    0.0700
     42 H42        -9.8599    0.7756   61.7309 H       1  ZINC000467104849    0.0800
     43 H43       -10.7554   -0.7653   61.6918 H       1  ZINC000467104849    0.1100
     44 H44        -8.2314   -1.0396   61.6691 H       1  ZINC000467104849    0.1100
     45 H45        -9.0537   -1.7863   60.2771 H       1  ZINC000467104849    0.0600
     46 H46        -8.1545   -0.1196   56.0012 H       1  ZINC000467104849    0.1500
     47 H47        -6.6429    1.1910   54.5662 H       1  ZINC000467104849    0.1500
     48 H48        -7.1676    2.3682   59.3217 H       1  ZINC000467104849    0.1500
     49 H49       -10.5251    1.1196   57.9518 H       1  ZINC000467104849    0.1100
     50 H50        -9.7105    2.0230   59.2549 H       1  ZINC000467104849    0.0800
     51 H51       -11.4919   -1.9148   58.2207 H       1  ZINC000467104849    0.1400
     52 H52        -9.8883   -3.2349   58.3672 H       1  ZINC000467104849    0.0600
     53 H53       -11.3855   -3.9624   57.7368 H       1  ZINC000467104849    0.0600
     54 H54        -9.8253   -4.7832   57.4913 H       1  ZINC000467104849    0.1000
@<TRIPOS>BOND
     1     1     2    1
     2     1    31    1
     3     1    32    1
     4     1    33    1
     5     2     3    1
     6     3    28   ar
     7     3     4   ar
     8     4     5   ar
     9     4    34    1
    10     5     6   ar
    11     5    35    1
    12     6     7    1
    13     6    27   ar
    14     7     8    1
    15     7     9    1
    16     7    10    1
    17     8    36    1
    18     8    37    1
    19     8    38    1
    20     9    39    1
    21     9    40    1
    22     9    41    1
    23    10    11    2
    24    10    12   am
    25    12    26    1
    26    12    13    1
    27    13    14    1
    28    13    42    1
    29    13    43    1
    30    14    15    1
    31    14    44    1
    32    14    45    1
    33    15    16    1
    34    16    17    1
    35    16    18    1
    36    16    26    1
    37    18    25   ar
    38    18    19   ar
    39    19    20   ar
    40    19    46    1
    41    20    21   ar
    42    20    47    1
    43    21    22    1
    44    21    23   ar
    45    23    24    1
    46    23    25   ar
    47    25    48    1
    48    26    49    1
    49    26    50    1
    50    27    28   ar
    51    27    51    1
    52    28    29    1
    53    29    30    1
    54    30    52    1
    55    30    53    1
    56    30    54    1
@<TRIPOS>SUBSTRUCTURE
     1 ZINC000467104849        1 TEMP              0 ****  ****    0 ROOT


##########                                Name:    ZINC001490207225
##########                DOCK_Rotatable_Bonds:                   7
##########                         Heavy_Atoms:                  24
##########                    Molecular_Weight:             334.378
##########                DOCK_Rotatable_Bonds:                   7
##########                       Formal_Charge:           -0.010001
##########                     HBond_Acceptors:                   9
##########                        HBond_Donors:                   3
##########                         Heavy_Atoms:                  24
##########                          Grid_Score:          -28.936424
##########                     Grid_vdw_energy:          -25.843771
##########                      Grid_es_energy:           -3.092653
##########           Internal_energy_repulsive:            7.914942

@<TRIPOS>MOLECULE
ZINC001490207225
 46 48 1 0 0
SMALL
USER_CHARGES


@<TRIPOS>ATOM
      1 C1         -8.5854    0.1379   63.5527 C.3     1  ZINC001490207225    0.0900
      2 N2         -9.6309    0.0523   62.5299 N.pl3   1  ZINC001490207225   -0.3600
      3 C3         -9.5641   -0.6668   61.3982 C.2     1  ZINC001490207225    0.1300
      4 C4        -10.7492   -0.4754   60.7165 C.2     1  ZINC001490207225   -0.3000
      5 C5        -11.1194   -1.0720   59.4201 C.2     1  ZINC001490207225    0.6200
      6 O6        -12.0161   -1.8913   59.3618 O.2     1  ZINC001490207225   -0.5400
      7 N7        -10.4639   -0.7094   58.2997 N.am    1  ZINC001490207225   -0.6200
      8 C8         -9.3582    0.2572   58.2012 C.3     1  ZINC001490207225    0.1100
      9 C9         -9.4775    0.9139   56.8161 C.3     1  ZINC001490207225   -0.1100
     10 H10        -9.8971    1.9183   56.8738 H       1  ZINC001490207225    0.1000
     11 C11        -8.0947    0.9016   56.1311 C.3     1  ZINC001490207225    0.1000
     12 N12        -8.3697    0.4871   54.7360 N.am    1  ZINC001490207225   -0.6200
     13 C13        -7.8077    0.9612   53.6065 C.2     1  ZINC001490207225    0.5300
     14 O14        -8.1428    0.5160   52.5293 O.2     1  ZINC001490207225   -0.5300
     15 C15        -6.7631    2.0447   53.6821 C.3     1  ZINC001490207225    0.1200
     16 N16        -5.6269    1.6880   52.8286 N.am    1  ZINC001490207225   -0.7400
     17 C17        -5.5606    2.1537   51.5656 C.2     1  ZINC001490207225    0.7100
     18 N18        -4.5146    1.8269   50.7810 N.am    1  ZINC001490207225   -0.8600
     19 O19        -6.4442    2.8687   51.1340 O.2     1  ZINC001490207225   -0.5900
     20 C20        -9.4025   -0.5668   54.8640 C.3     1  ZINC001490207225    0.1100
     21 C21       -10.3678   -0.0457   55.9845 C.3     1  ZINC001490207225   -0.0800
     22 C22       -11.6115    0.6300   55.4036 C.3     1  ZINC001490207225   -0.1300
     23 C23       -10.7096   -1.2075   56.9364 C.3     1  ZINC001490207225    0.1000
     24 C24       -11.5411    0.3990   61.4940 C.2     1  ZINC001490207225    0.0700
     25 N25       -10.8698    0.7015   62.5709 N.2     1  ZINC001490207225   -0.2900
     26 H26        -8.7342   -0.6498   64.2912 H       1  ZINC001490207225    0.0800
     27 H27        -7.6085    0.0170   63.0845 H       1  ZINC001490207225    0.0900
     28 H28        -8.6356    1.1101   64.0430 H       1  ZINC001490207225    0.1000
     29 H29        -8.7355   -1.2818   61.0793 H       1  ZINC001490207225    0.1900
     30 H30        -9.4505    1.0120   58.9822 H       1  ZINC001490207225    0.0900
     31 H31        -8.4018   -0.2582   58.2896 H       1  ZINC001490207225    0.0800
     32 H32        -7.6521    1.8974   56.1511 H       1  ZINC001490207225    0.0900
     33 H33        -7.4361    0.1824   56.6181 H       1  ZINC001490207225    0.0900
     34 H34        -7.1917    2.9872   53.3413 H       1  ZINC001490207225    0.1000
     35 H35        -6.4240    2.1513   54.7126 H       1  ZINC001490207225    0.1000
     36 H36        -4.9226    1.1167   53.1725 H       1  ZINC001490207225    0.4100
     37 H37        -4.4663    2.1630   49.8723 H       1  ZINC001490207225    0.4000
     38 H38        -3.8103    1.2556   51.1248 H       1  ZINC001490207225    0.4200
     39 H39        -9.9476   -0.6802   53.9269 H       1  ZINC001490207225    0.0900
     40 H40        -8.9458   -1.5127   55.1554 H       1  ZINC001490207225    0.0800
     41 H41       -12.1688   -0.0891   54.8033 H       1  ZINC001490207225    0.0700
     42 H42       -12.2420    0.9910   56.2162 H       1  ZINC001490207225    0.0600
     43 H43       -11.3098    1.4696   54.7774 H       1  ZINC001490207225    0.0600
     44 H44       -10.0547   -2.0565   56.7406 H       1  ZINC001490207225    0.0800
     45 H45       -11.7516   -1.5011   56.8093 H       1  ZINC001490207225    0.0900
     46 H46       -12.5305    0.7516   61.2429 H       1  ZINC001490207225    0.2000
@<TRIPOS>BOND
     1     1     2    1
     2     1    26    1
     3     1    27    1
     4     1    28    1
     5     2    25    1
     6     2     3    1
     7     3     4    2
     8     3    29    1
     9     4     5    1
    10     4    24    1
    11     5     6    2
    12     5     7   am
    13     7    23    1
    14     7     8    1
    15     8     9    1
    16     8    30    1
    17     8    31    1
    18     9    10    1
    19     9    21    1
    20     9    11    1
    21    11    12    1
    22    11    32    1
    23    11    33    1
    24    12    13   am
    25    12    20    1
    26    13    14    2
    27    13    15    1
    28    15    16    1
    29    15    34    1
    30    15    35    1
    31    16    17   am
    32    16    36    1
    33    17    18   am
    34    17    19    2
    35    18    37    1
    36    18    38    1
    37    20    21    1
    38    20    39    1
    39    20    40    1
    40    21    22    1
    41    21    23    1
    42    22    41    1
    43    22    42    1
    44    22    43    1
    45    23    44    1
    46    23    45    1
    47    24    25    2
    48    24    46    1
@<TRIPOS>SUBSTRUCTURE
     1 ZINC001490207225        1 TEMP              0 ****  ****    0 ROOT


##########                                Name:    ZINC000464867530
##########                DOCK_Rotatable_Bonds:                   8
##########                         Heavy_Atoms:                  30
##########                    Molecular_Weight:              422.49
##########                DOCK_Rotatable_Bonds:                   8
##########                       Formal_Charge:         -0.00999994
##########                     HBond_Acceptors:                   7
##########                        HBond_Donors:                   0
##########                         Heavy_Atoms:                  30
##########                          Grid_Score:          -28.912300
##########                     Grid_vdw_energy:          -27.639807
##########                      Grid_es_energy:           -1.272493
##########           Internal_energy_repulsive:           35.861637

@<TRIPOS>MOLECULE
ZINC000464867530
 59 62 1 0 0
SMALL
USER_CHARGES


@<TRIPOS>ATOM
      1 C1         -4.9251    3.9292   54.5555 C.3     1  ZINC000464867530   -0.1500
      2 C2         -5.0876    3.6528   53.0594 C.3     1  ZINC000464867530   -0.1400
      3 C3         -6.5695    3.7257   52.6855 C.3     1  ZINC000464867530    0.0900
      4 N4         -7.3299    2.7909   53.5188 N.am    1  ZINC000464867530   -0.6100
      5 C5         -7.0524    1.3541   53.4479 C.3     1  ZINC000464867530    0.0700
      6 C6         -7.8475    0.7374   52.2953 C.3     1  ZINC000464867530    0.4300
      7 F7         -9.2072    1.0212   52.4623 F       1  ZINC000464867530   -0.1700
      8 F8         -7.4042    1.2757   51.0825 F       1  ZINC000464867530   -0.1800
      9 F9         -7.6579   -0.6487   52.2873 F       1  ZINC000464867530   -0.1800
     10 C10        -8.2845    3.2527   54.3505 C.2     1  ZINC000464867530    0.5300
     11 O11        -8.5140    4.4423   54.4091 O.2     1  ZINC000464867530   -0.5100
     12 C12        -9.0667    2.2913   55.2077 C.3     1  ZINC000464867530   -0.1200
     13 H13        -9.1121    1.3195   54.7159 H       1  ZINC000464867530    0.1000
     14 C14       -10.4855    2.8271   55.4121 C.3     1  ZINC000464867530   -0.1200
     15 C15       -11.2906    1.8356   56.2551 C.3     1  ZINC000464867530   -0.1300
     16 C16       -10.6287    1.6836   57.6283 C.3     1  ZINC000464867530    0.1000
     17 N17        -9.2212    1.3086   57.4359 N.am    1  ZINC000464867530   -0.6100
     18 C18        -8.7118    0.2184   58.0430 C.2     1  ZINC000464867530    0.5500
     19 O19        -7.5480   -0.0798   57.8774 O.2     1  ZINC000464867530   -0.5300
     20 C20        -9.5885   -0.6300   58.9278 C.3     1  ZINC000464867530   -0.1700
     21 H21       -10.1513   -0.0899   59.6891 H       1  ZINC000464867530    0.1300
     22 C22        -9.0901   -2.0344   59.2798 C.3     1  ZINC000464867530   -0.1300
     23 C23       -10.2463   -1.8539   58.3016 C.3     1  ZINC000464867530   -0.0600
     24 C24       -10.0804   -2.1679   56.8054 C.3     1  ZINC000464867530   -0.0900
     25 C25       -11.5355   -2.0924   56.2923 C.3     1  ZINC000464867530   -0.0800
     26 C26       -12.3988   -2.4028   57.4969 C.ar    1  ZINC000464867530   -0.0900
     27 C27       -13.7292   -2.7771   57.5742 C.ar    1  ZINC000464867530   -0.1100
     28 C28       -14.3166   -3.0106   58.8025 C.ar    1  ZINC000464867530   -0.1100
     29 C29       -13.5738   -2.8702   59.9595 C.ar    1  ZINC000464867530   -0.1200
     30 C30       -12.2459   -2.4971   59.8853 C.ar    1  ZINC000464867530   -0.1000
     31 C31       -11.6543   -2.2627   58.6556 C.ar    1  ZINC000464867530   -0.0700
     32 C32        -8.3791    2.1438   56.5687 C.3     1  ZINC000464867530    0.1300
     33 H33        -5.3093    4.9230   54.7852 H       1  ZINC000464867530    0.0600
     34 H34        -5.4806    3.1842   55.1250 H       1  ZINC000464867530    0.0600
     35 H35        -3.8694    3.8773   54.8219 H       1  ZINC000464867530    0.0600
     36 H36        -4.5322    4.3978   52.4898 H       1  ZINC000464867530    0.0700
     37 H37        -4.7034    2.6590   52.8297 H       1  ZINC000464867530    0.0700
     38 H38        -6.9360    4.7391   52.8491 H       1  ZINC000464867530    0.0900
     39 H39        -6.6929    3.4597   51.6357 H       1  ZINC000464867530    0.0900
     40 H40        -5.9870    1.1978   53.2790 H       1  ZINC000464867530    0.1300
     41 H41        -7.3450    0.8809   54.3852 H       1  ZINC000464867530    0.1200
     42 H42       -10.4405    3.7876   55.9256 H       1  ZINC000464867530    0.0800
     43 H43       -10.9681    2.9558   54.4433 H       1  ZINC000464867530    0.0800
     44 H44       -12.3078    2.2067   56.3807 H       1  ZINC000464867530    0.0900
     45 H45       -11.3151    0.8679   55.7541 H       1  ZINC000464867530    0.0700
     46 H46       -10.6844    2.6293   58.1675 H       1  ZINC000464867530    0.0700
     47 H47       -11.1396    0.9061   58.1962 H       1  ZINC000464867530    0.0900
     48 H48        -8.1282   -2.3445   58.8714 H       1  ZINC000464867530    0.1100
     49 H49        -9.3258   -2.4183   60.2723 H       1  ZINC000464867530    0.1100
     50 H50        -9.4577   -1.4177   56.3181 H       1  ZINC000464867530    0.0700
     51 H51        -9.6697   -3.1674   56.6618 H       1  ZINC000464867530    0.0800
     52 H52       -11.7533   -1.0918   55.9189 H       1  ZINC000464867530    0.0800
     53 H53       -11.6991   -2.8328   55.5092 H       1  ZINC000464867530    0.0800
     54 H54       -14.3104   -2.8866   56.6705 H       1  ZINC000464867530    0.1200
     55 H55       -15.3550   -3.3022   58.8586 H       1  ZINC000464867530    0.1300
     56 H56       -14.0312   -3.0518   60.9209 H       1  ZINC000464867530    0.1300
     57 H57       -11.6668   -2.3873   60.7903 H       1  ZINC000464867530    0.1200
     58 H58        -7.4061    1.6701   56.4380 H       1  ZINC000464867530    0.1000
     59 H59        -8.2511    3.1273   57.0210 H       1  ZINC000464867530    0.0800
@<TRIPOS>BOND
     1     1     2    1
     2     1    33    1
     3     1    34    1
     4     1    35    1
     5     2     3    1
     6     2    36    1
     7     2    37    1
     8     3     4    1
     9     3    38    1
    10     3    39    1
    11     4     5    1
    12     4    10   am
    13     5     6    1
    14     5    40    1
    15     5    41    1
    16     6     7    1
    17     6     8    1
    18     6     9    1
    19    10    11    2
    20    10    12    1
    21    12    13    1
    22    12    32    1
    23    12    14    1
    24    14    15    1
    25    14    42    1
    26    14    43    1
    27    15    16    1
    28    15    44    1
    29    15    45    1
    30    16    17    1
    31    16    46    1
    32    16    47    1
    33    17    18   am
    34    17    32    1
    35    18    19    2
    36    18    20    1
    37    20    21    1
    38    20    23    1
    39    20    22    1
    40    22    23    1
    41    22    48    1
    42    22    49    1
    43    23    31    1
    44    23    24    1
    45    24    25    1
    46    24    50    1
    47    24    51    1
    48    25    26    1
    49    25    52    1
    50    25    53    1
    51    26    31   ar
    52    26    27   ar
    53    27    28   ar
    54    27    54    1
    55    28    29   ar
    56    28    55    1
    57    29    30   ar
    58    29    56    1
    59    30    31   ar
    60    30    57    1
    61    32    58    1
    62    32    59    1
@<TRIPOS>SUBSTRUCTURE
     1 ZINC000464867530        1 TEMP              0 ****  ****    0 ROOT


##########                                Name:    ZINC000328606936
##########                DOCK_Rotatable_Bonds:                   6
##########                         Heavy_Atoms:                  23
##########                    Molecular_Weight:             338.428
##########                DOCK_Rotatable_Bonds:                   6
##########                       Formal_Charge:           0.0100001
##########                     HBond_Acceptors:                   7
##########                        HBond_Donors:                   2
##########                         Heavy_Atoms:                  23
##########                          Grid_Score:          -28.897434
##########                     Grid_vdw_energy:          -22.310274
##########                      Grid_es_energy:           -6.587159
##########           Internal_energy_repulsive:           10.303793

@<TRIPOS>MOLECULE
ZINC000328606936
 45 47 1 0 0
SMALL
USER_CHARGES


@<TRIPOS>ATOM
      1 C1         -8.9987    1.0273   65.0368 C.3     1  <0>        -0.0500
      2 N2         -9.1923    2.0593   64.0096 N.4     1  <0>        -0.3500
      3 H3         -8.3077    2.4986   63.8031 H       1  <0>         0.4200
      4 C4        -10.1374    3.0699   64.5029 C.3     1  <0>        -0.0900
      5 C5        -11.4418    2.4054   64.8610 C.2     1  <0>         0.4900
      6 O6        -12.3165    2.2869   64.0200 O.co2   1  <0>        -0.6700
      7 O7        -11.6223    1.9864   65.9916 O.co2   1  <0>        -0.6400
      8 C8         -9.7288    1.4414   62.7896 C.3     1  <0>         0.0100
      9 H9        -10.6853    0.9619   62.9977 H       1  <0>         0.1600
     10 C10        -8.7255    0.4142   62.2225 C.3     1  <0>         0.1000
     11 N11        -8.8333    0.5587   60.7521 N.am    1  <0>        -0.6200
     12 C12        -8.8151   -0.4164   59.8219 C.2     1  <0>         0.6200
     13 O13        -8.6986   -1.5793   60.1615 O.2     1  <0>        -0.5100
     14 C14        -8.9355   -0.0764   58.4011 C.2     1  <0>        -0.2800
     15 C15        -7.9940    0.5713   57.6617 C.2     1  <0>        -0.0300
     16 C16        -8.3525    0.7717   56.3413 C.2     1  <0>        -0.1200
     17 C17        -9.5748    0.2868   56.0252 C.2     1  <0>        -0.1900
     18 C18       -10.2008    0.3772   54.6463 C.3     1  <0>        -0.0500
     19 C19        -9.4450    1.4294   53.8307 C.3     1  <0>        -0.1200
     20 C20        -7.9428    1.1460   53.9218 C.3     1  <0>        -0.1200
     21 C21        -7.4531    1.4754   55.3332 C.3     1  <0>        -0.0600
     22 S22       -10.3143   -0.4463   57.3786 S.3     1  <0>         0.2000
     23 C23        -8.9657    2.0183   60.5360 C.3     1  <0>         0.0600
     24 C24        -9.8898    2.4997   61.6786 C.3     1  <0>         0.0800
     25 H25        -9.5700    3.4778   62.0379 H       1  <0>         0.1000
     26 O26       -11.2458    2.5549   61.2309 O.3     1  <0>        -0.5400
     27 H27        -9.9542    0.5528   65.2599 H       1  <0>         0.1100
     28 H28        -8.2973    0.2774   64.6707 H       1  <0>         0.1100
     29 H29        -8.6006    1.4858   65.9420 H       1  <0>         0.1600
     30 H30        -9.7224    3.5551   65.3863 H       1  <0>         0.1200
     31 H31       -10.3105    3.8152   63.7266 H       1  <0>         0.1300
     32 H32        -7.7138    0.6478   62.5542 H       1  <0>         0.1000
     33 H33        -9.0024   -0.5953   62.5265 H       1  <0>         0.1200
     34 H34        -7.0500    0.9003   58.0705 H       1  <0>         0.1500
     35 H35       -10.1311   -0.5902   54.1490 H       1  <0>         0.0900
     36 H36       -11.2472    0.6685   54.7384 H       1  <0>         0.0800
     37 H37        -9.7628    1.3810   52.7891 H       1  <0>         0.0700
     38 H38        -9.6541    2.4211   54.2316 H       1  <0>         0.0700
     39 H39        -7.7571    0.0934   53.7077 H       1  <0>         0.0700
     40 H40        -7.4111    1.7645   53.1986 H       1  <0>         0.0700
     41 H41        -7.4969    2.5527   55.4930 H       1  <0>         0.0800
     42 H42        -6.4273    1.1274   55.4545 H       1  <0>         0.0800
     43 H43        -7.9916    2.5026   60.6044 H       1  <0>         0.1000
     44 H44        -9.4238    2.2192   59.5676 H       1  <0>         0.1000
     45 H45       -11.8895    2.6836   61.9410 H       1  <0>         0.4000
@<TRIPOS>BOND
     1     1     2    1
     2     1    27    1
     3     1    28    1
     4     1    29    1
     5     2     3    1
     6     2     4    1
     7     2     8    1
     8     4     5    1
     9     4    30    1
    10     4    31    1
    11     5     6   ar
    12     5     7   ar
    13     8     9    1
    14     8    24    1
    15     8    10    1
    16    10    11    1
    17    10    32    1
    18    10    33    1
    19    11    12   am
    20    11    23    1
    21    12    13    2
    22    12    14    1
    23    14    22    1
    24    14    15    2
    25    15    16    1
    26    15    34    1
    27    16    21    1
    28    16    17    2
    29    17    18    1
    30    17    22    1
    31    18    19    1
    32    18    35    1
    33    18    36    1
    34    19    20    1
    35    19    37    1
    36    19    38    1
    37    20    21    1
    38    20    39    1
    39    20    40    1
    40    21    41    1
    41    21    42    1
    42    23    24    1
    43    23    43    1
    44    23    44    1
    45    24    25    1
    46    24    26    1
    47    26    45    1
@<TRIPOS>SUBSTRUCTURE
     1 <0>         1 TEMP              0 ****  ****    0 ROOT


##########                                Name:    ZINC000854500114
##########                DOCK_Rotatable_Bonds:                   7
##########                         Heavy_Atoms:                  24
##########                    Molecular_Weight:             399.288
##########                DOCK_Rotatable_Bonds:                   7
##########                       Formal_Charge:          -0.0399992
##########                     HBond_Acceptors:                   7
##########                        HBond_Donors:                   2
##########                         Heavy_Atoms:                  24
##########                          Grid_Score:          -28.893295
##########                     Grid_vdw_energy:          -29.129438
##########                      Grid_es_energy:            0.236142
##########           Internal_energy_repulsive:           75.630180

@<TRIPOS>MOLECULE
ZINC000854500114
 47 49 1 0 0
SMALL
USER_CHARGES


@<TRIPOS>ATOM
      1 O1         -7.9730    2.3854   55.8769 O.2     1  ZINC000854500114   -0.5800
      2 C2         -8.1794    1.3518   55.2721 C.2     1  ZINC000854500114    0.6600
      3 N3         -8.0174    1.3097   53.9348 N.am    1  ZINC000854500114   -0.7100
      4 C4         -7.5981    2.5116   53.2094 C.3     1  ZINC000854500114    0.1600
      5 C5         -6.0852    2.7437   53.4014 C.3     1  ZINC000854500114   -0.1400
      6 C6         -5.4398    2.0935   52.1525 C.3     1  ZINC000854500114   -0.1300
      7 C7         -6.4432    2.4460   51.0265 C.3     1  ZINC000854500114   -0.1300
      8 C8         -7.8258    2.3222   51.6995 C.3     1  ZINC000854500114   -0.1300
      9 O9         -8.5646    0.2473   55.9387 O.3     1  ZINC000854500114   -0.3600
     10 C10        -8.4638    0.2825   57.3867 C.3     1  ZINC000854500114    0.1000
     11 C11        -9.3683   -0.7955   57.9872 C.3     1  ZINC000854500114    0.1500
     12 H12        -8.9884   -1.7816   57.7204 H       1  ZINC000854500114    0.0900
     13 C13       -10.7924   -0.6304   57.4472 C.3     1  ZINC000854500114   -0.1300
     14 C14       -11.7202   -1.6205   58.1550 C.3     1  ZINC000854500114   -0.1200
     15 C15       -11.7356   -1.3239   59.6563 C.3     1  ZINC000854500114   -0.1400
     16 C16       -10.3222   -1.4969   60.2214 C.3     1  ZINC000854500114    0.0900
     17 N17        -9.3952   -0.6573   59.4497 N.am    1  ZINC000854500114   -0.6100
     18 C18        -8.5890    0.2260   60.0714 C.2     1  ZINC000854500114    0.5900
     19 O19        -7.8262    0.9152   59.4214 O.2     1  ZINC000854500114   -0.4900
     20 C20        -8.6319    0.3566   61.5366 C.2     1  ZINC000854500114   -0.0300
     21 C21        -9.2505    1.3589   62.2634 C.2     1  ZINC000854500114   -0.1200
     22 C22        -9.0134    1.0439   63.6041 C.2     1  ZINC000854500114    0.0200
     23 Br23       -9.6044    2.0350   65.1022 Br      1  ZINC000854500114    0.0400
     24 N24        -8.3097   -0.0594   63.6385 N.2     1  ZINC000854500114   -0.2400
     25 N25        -8.0740   -0.4903   62.4517 N.pl3   1  ZINC000854500114   -0.3700
     26 H26        -8.1784    0.4837   53.4525 H       1  ZINC000854500114    0.4000
     27 H27        -8.1576    3.3765   53.5658 H       1  ZINC000854500114    0.0900
     28 H28        -5.8640    3.8106   53.4334 H       1  ZINC000854500114    0.0800
     29 H29        -5.7362    2.2533   54.3101 H       1  ZINC000854500114    0.0700
     30 H30        -4.4625    2.5320   51.9502 H       1  ZINC000854500114    0.0700
     31 H31        -5.3616    1.0135   52.2761 H       1  ZINC000854500114    0.0700
     32 H32        -6.2798    3.4647   50.6750 H       1  ZINC000854500114    0.0700
     33 H33        -6.3555    1.7382   50.2021 H       1  ZINC000854500114    0.0700
     34 H34        -8.2482    1.3362   51.5063 H       1  ZINC000854500114    0.0700
     35 H35        -8.4950    3.0959   51.3229 H       1  ZINC000854500114    0.0800
     36 H36        -7.4316    0.0976   57.6837 H       1  ZINC000854500114    0.1000
     37 H37        -8.7762    1.2620   57.7489 H       1  ZINC000854500114    0.0700
     38 H38       -11.1363    0.3870   57.6331 H       1  ZINC000854500114    0.0800
     39 H39       -10.8000   -0.8273   56.3751 H       1  ZINC000854500114    0.0900
     40 H40       -12.7293   -1.5221   57.7551 H       1  ZINC000854500114    0.0800
     41 H41       -11.3615   -2.6364   57.9892 H       1  ZINC000854500114    0.0700
     42 H42       -12.0705   -0.2999   59.8215 H       1  ZINC000854500114    0.0700
     43 H43       -12.4145   -2.0145   60.1567 H       1  ZINC000854500114    0.0800
     44 H44       -10.3072   -1.1917   61.2678 H       1  ZINC000854500114    0.0800
     45 H45       -10.0210   -2.5411   60.1389 H       1  ZINC000854500114    0.0800
     46 H46        -9.7996    2.2046   61.8766 H       1  ZINC000854500114    0.1700
     47 H47        -7.5712   -1.2917   62.2377 H       1  ZINC000854500114    0.4500
@<TRIPOS>BOND
     1     1     2    2
     2     2     3   am
     3     2     9    1
     4     3     4    1
     5     3    26    1
     6     4     8    1
     7     4     5    1
     8     4    27    1
     9     5     6    1
    10     5    28    1
    11     5    29    1
    12     6     7    1
    13     6    30    1
    14     6    31    1
    15     7     8    1
    16     7    32    1
    17     7    33    1
    18     8    34    1
    19     8    35    1
    20     9    10    1
    21    10    11    1
    22    10    36    1
    23    10    37    1
    24    11    12    1
    25    11    17    1
    26    11    13    1
    27    13    14    1
    28    13    38    1
    29    13    39    1
    30    14    15    1
    31    14    40    1
    32    14    41    1
    33    15    16    1
    34    15    42    1
    35    15    43    1
    36    16    17    1
    37    16    44    1
    38    16    45    1
    39    17    18   am
    40    18    19    2
    41    18    20    1
    42    20    25    1
    43    20    21    2
    44    21    22    1
    45    21    46    1
    46    22    23    1
    47    22    24    2
    48    24    25    1
    49    25    47    1
@<TRIPOS>SUBSTRUCTURE
     1 ZINC000854500114        1 TEMP              0 ****  ****    0 ROOT


##########                                Name:    ZINC000484424341
##########                DOCK_Rotatable_Bonds:                   7
##########                         Heavy_Atoms:                  26
##########                    Molecular_Weight:             359.425
##########                DOCK_Rotatable_Bonds:                   7
##########                       Formal_Charge:          -0.0100009
##########                     HBond_Acceptors:                   7
##########                        HBond_Donors:                   1
##########                         Heavy_Atoms:                  26
##########                          Grid_Score:          -28.876947
##########                     Grid_vdw_energy:          -27.799519
##########                      Grid_es_energy:           -1.077429
##########           Internal_energy_repulsive:           10.897322

@<TRIPOS>MOLECULE
ZINC000484424341
 51 53 1 0 0
SMALL
USER_CHARGES


@<TRIPOS>ATOM
      1 C1         -6.7723    3.2717   51.9362 C.3     1  ZINC000484424341    0.0300
      2 O2         -7.7482    2.2286   51.8980 O.3     1  ZINC000484424341   -0.3800
      3 C3         -7.6409    1.2925   52.9724 C.3     1  ZINC000484424341    0.1300
      4 H4         -6.6009    1.2229   53.2910 H       1  ZINC000484424341    0.0700
      5 C5         -8.1234   -0.0811   52.5022 C.3     1  ZINC000484424341   -0.1700
      6 C6         -8.4903    1.7549   54.1281 C.ar    1  ZINC000484424341   -0.0700
      7 C7         -9.5891    2.5621   53.8981 C.ar    1  ZINC000484424341   -0.1000
      8 C8        -10.3715    2.9887   54.9559 C.ar    1  ZINC000484424341   -0.1000
      9 C9        -10.0575    2.6095   56.2458 C.ar    1  ZINC000484424341   -0.1100
     10 C10        -8.9540    1.7983   56.4807 C.ar    1  ZINC000484424341    0.1400
     11 N11        -8.6336    1.4123   57.7847 N.am    1  ZINC000484424341   -0.6400
     12 C12        -8.9945    0.1943   58.2349 C.2     1  ZINC000484424341    0.5100
     13 O13        -9.5977   -0.5674   57.5075 O.2     1  ZINC000484424341   -0.4900
     14 C14        -8.6520   -0.2182   59.6289 C.2     1  ZINC000484424341    0.5200
     15 O15        -7.9753   -1.2075   59.8201 O.2     1  ZINC000484424341   -0.5200
     16 N16        -9.0942    0.5081   60.6745 N.am    1  ZINC000484424341   -0.5800
     17 C17        -9.9180    1.7227   60.5869 C.3     1  ZINC000484424341    0.1100
     18 C18       -10.2009    2.1897   62.0303 C.3     1  ZINC000484424341   -0.1500
     19 C19        -9.9958    0.8952   62.8608 C.3     1  ZINC000484424341    0.1500
     20 H20       -10.8911    0.2735   62.8429 H       1  ZINC000484424341    0.1100
     21 N21        -9.6064    1.2106   64.2374 N.am    1  ZINC000484424341   -0.6100
     22 C22        -9.7795    2.5252   64.8665 C.3     1  ZINC000484424341    0.1000
     23 C23        -9.6506    2.2754   66.3855 C.3     1  ZINC000484424341   -0.1300
     24 C24        -8.7848    0.9947   66.4220 C.3     1  ZINC000484424341   -0.1600
     25 C25        -9.0499    0.3314   65.0884 C.2     1  ZINC000484424341    0.5200
     26 O26        -8.7912   -0.8234   64.8234 O.2     1  ZINC000484424341   -0.5200
     27 C27        -8.8374    0.2127   62.0958 C.3     1  ZINC000484424341    0.0900
     28 C28        -8.1737    1.3671   55.4155 C.ar    1  ZINC000484424341   -0.1300
     29 H29        -5.7739    2.8372   51.8857 H       1  ZINC000484424341    0.0400
     30 H30        -6.9212    3.9397   51.0878 H       1  ZINC000484424341    0.0900
     31 H31        -6.8775    3.8338   52.8641 H       1  ZINC000484424341    0.0400
     32 H32        -9.1635   -0.0114   52.1837 H       1  ZINC000484424341    0.0700
     33 H33        -7.5090   -0.4155   51.6663 H       1  ZINC000484424341    0.0600
     34 H34        -8.0415   -0.7951   53.3219 H       1  ZINC000484424341    0.0700
     35 H35        -9.8368    2.8605   52.8902 H       1  ZINC000484424341    0.1300
     36 H36       -11.2288    3.6195   54.7727 H       1  ZINC000484424341    0.1300
     37 H37       -10.6686    2.9432   57.0714 H       1  ZINC000484424341    0.1300
     38 H38        -8.1514    2.0210   58.3661 H       1  ZINC000484424341    0.4200
     39 H39        -9.3774    2.4989   60.0454 H       1  ZINC000484424341    0.0800
     40 H40       -10.8562    1.4984   60.0792 H       1  ZINC000484424341    0.0800
     41 H41        -9.4903    2.9587   62.3331 H       1  ZINC000484424341    0.0900
     42 H42       -11.2251    2.5504   62.1252 H       1  ZINC000484424341    0.0900
     43 H43        -9.0014    3.2101   64.5295 H       1  ZINC000484424341    0.0800
     44 H44       -10.7649    2.9283   64.6329 H       1  ZINC000484424341    0.0800
     45 H45        -9.1408    3.1050   66.8754 H       1  ZINC000484424341    0.0900
     46 H46       -10.6273    2.0989   66.8361 H       1  ZINC000484424341    0.0800
     47 H47        -7.7299    1.2501   66.5224 H       1  ZINC000484424341    0.1100
     48 H48        -9.1000    0.3443   67.2378 H       1  ZINC000484424341    0.1000
     49 H49        -8.8486   -0.8630   62.2713 H       1  ZINC000484424341    0.0900
     50 H50        -7.8804    0.6374   62.3991 H       1  ZINC000484424341    0.0900
     51 H51        -7.3156    0.7363   55.5944 H       1  ZINC000484424341    0.1300
@<TRIPOS>BOND
     1     1     2    1
     2     1    29    1
     3     1    30    1
     4     1    31    1
     5     2     3    1
     6     3     4    1
     7     3     5    1
     8     3     6    1
     9     5    32    1
    10     5    33    1
    11     5    34    1
    12     6    28   ar
    13     6     7   ar
    14     7     8   ar
    15     7    35    1
    16     8     9   ar
    17     8    36    1
    18     9    10   ar
    19     9    37    1
    20    10    11    1
    21    10    28   ar
    22    11    12   am
    23    11    38    1
    24    12    13    2
    25    12    14    1
    26    14    15    2
    27    14    16   am
    28    16    27    1
    29    16    17    1
    30    17    18    1
    31    17    39    1
    32    17    40    1
    33    18    19    1
    34    18    41    1
    35    18    42    1
    36    19    20    1
    37    19    21    1
    38    19    27    1
    39    21    25   am
    40    21    22    1
    41    22    23    1
    42    22    43    1
    43    22    44    1
    44    23    24    1
    45    23    45    1
    46    23    46    1
    47    24    25    1
    48    24    47    1
    49    24    48    1
    50    25    26    2
    51    27    49    1
    52    27    50    1
    53    28    51    1
@<TRIPOS>SUBSTRUCTURE
     1 ZINC000484424341        1 TEMP              0 ****  ****    0 ROOT


##########                                Name:    ZINC000545381384
##########                DOCK_Rotatable_Bonds:                   6
##########                         Heavy_Atoms:                  30
##########                    Molecular_Weight:             405.543
##########                DOCK_Rotatable_Bonds:                   6
##########                       Formal_Charge:                0.05
##########                     HBond_Acceptors:                   6
##########                        HBond_Donors:                   1
##########                         Heavy_Atoms:                  30
##########                          Grid_Score:          -28.872993
##########                     Grid_vdw_energy:          -28.061892
##########                      Grid_es_energy:           -0.811102
##########           Internal_energy_repulsive:           62.918087

@<TRIPOS>MOLECULE
ZINC000545381384
 61 64 1 0 0
SMALL
USER_CHARGES


@<TRIPOS>ATOM
      1 C1        -10.9952   -3.7690   57.5017 C.3     1  ZINC000545381384   -0.2000
      2 C2        -11.2224   -2.3224   57.9452 C.3     1  ZINC000545381384    0.0500
      3 N3         -9.9800   -1.5573   57.7751 N.3     1  ZINC000545381384   -0.5300
      4 C4         -9.6283   -0.8410   59.0113 C.3     1  ZINC000545381384    0.0500
      5 C5         -8.1737   -0.3828   58.9115 C.3     1  ZINC000545381384   -0.0700
      6 C6         -7.9531    0.3517   57.6108 C.ar    1  ZINC000545381384    0.1800
      7 C7         -8.8538    0.2356   56.5587 C.ar    1  ZINC000545381384   -0.0800
      8 C8        -10.0925   -0.6145   56.6576 C.3     1  ZINC000545381384    0.0900
      9 C9         -8.6181    0.9230   55.3706 C.ar    1  ZINC000545381384   -0.0700
     10 C10        -9.5558    0.8169   54.2324 C.2     1  ZINC000545381384    0.5800
     11 O11        -9.3352    0.0275   53.3348 O.2     1  ZINC000545381384   -0.4800
     12 N12       -10.6551    1.5955   54.1902 N.am    1  ZINC000545381384   -0.6400
     13 C13       -11.5397    1.4944   53.1184 C.2     1  ZINC000545381384    0.3000
     14 C14       -12.2423    0.3858   52.7558 C.2     1  ZINC000545381384   -0.2700
     15 C15       -13.0078    0.7118   51.6333 C.2     1  ZINC000545381384    0.1000
     16 C16       -13.9378   -0.2202   50.9002 C.3     1  ZINC000545381384   -0.0300
     17 C17       -14.9118    0.5967   50.0488 C.3     1  ZINC000545381384   -0.0600
     18 C18       -15.7268    1.5230   50.9536 C.3     1  ZINC000545381384   -0.1500
     19 C19       -14.1266    1.4335   49.0369 C.3     1  ZINC000545381384   -0.1400
     20 C20       -15.8560   -0.3496   49.3045 C.3     1  ZINC000545381384   -0.1400
     21 N21       -12.7808    1.9633   51.3267 N.2     1  ZINC000545381384   -0.2700
     22 N22       -11.8634    2.4851   52.2477 N.pl3   1  ZINC000545381384   -0.3900
     23 C23       -11.3400    3.8533   52.2636 C.3     1  ZINC000545381384    0.1000
     24 C24        -7.4555    1.7270   55.2833 C.ar    1  ZINC000545381384   -0.0700
     25 C25        -7.1488    2.4500   54.1236 C.ar    1  ZINC000545381384   -0.1100
     26 C26        -6.0201    3.2125   54.0836 C.ar    1  ZINC000545381384   -0.1000
     27 C27        -5.1661    3.2818   55.1825 C.ar    1  ZINC000545381384   -0.1000
     28 C28        -5.4333    2.5914   56.3240 C.ar    1  ZINC000545381384   -0.0900
     29 C29        -6.5898    1.7936   56.4030 C.ar    1  ZINC000545381384    0.1400
     30 N30        -6.8780    1.1056   57.5071 N.ar    1  ZINC000545381384   -0.4600
     31 H31       -10.6667   -3.7831   56.4625 H       1  ZINC000545381384    0.0600
     32 H32       -10.2313   -4.2261   58.1305 H       1  ZINC000545381384    0.0600
     33 H33       -11.9260   -4.3285   57.5961 H       1  ZINC000545381384    0.0700
     34 H34       -12.0102   -1.8758   57.3384 H       1  ZINC000545381384    0.0900
     35 H35       -11.5184   -2.3062   58.9941 H       1  ZINC000545381384    0.0800
     36 H36       -10.2780    0.0263   59.1293 H       1  ZINC000545381384    0.0500
     37 H37        -9.7443   -1.5074   59.8660 H       1  ZINC000545381384    0.0900
     38 H38        -7.9454    0.2811   59.7453 H       1  ZINC000545381384    0.1000
     39 H39        -7.5169   -1.2517   58.9524 H       1  ZINC000545381384    0.1000
     40 H40       -10.2229   -1.1703   55.7291 H       1  ZINC000545381384    0.0900
     41 H41       -10.9589    0.0282   56.8140 H       1  ZINC000545381384    0.0700
     42 H42       -10.8306    2.2263   54.9060 H       1  ZINC000545381384    0.4100
     43 H43       -12.2128   -0.5750   53.2482 H       1  ZINC000545381384    0.1700
     44 H44       -13.3571   -0.8801   50.2556 H       1  ZINC000545381384    0.0800
     45 H45       -14.4972   -0.8165   51.6210 H       1  ZINC000545381384    0.0800
     46 H46       -15.0542    2.1971   51.4838 H       1  ZINC000545381384    0.0500
     47 H47       -16.4207    2.1050   50.3469 H       1  ZINC000545381384    0.0500
     48 H48       -16.2863    0.9268   51.6744 H       1  ZINC000545381384    0.0800
     49 H49       -13.5459    0.7736   48.3924 H       1  ZINC000545381384    0.0600
     50 H50       -14.8204    2.0155   48.4304 H       1  ZINC000545381384    0.0600
     51 H51       -13.4538    2.1077   49.5671 H       1  ZINC000545381384    0.0600
     52 H52       -16.4155   -0.9458   50.0255 H       1  ZINC000545381384    0.0500
     53 H53       -16.5499    0.2324   48.6980 H       1  ZINC000545381384    0.0500
     54 H54       -15.2753   -1.0096   48.6601 H       1  ZINC000545381384    0.0500
     55 H55       -11.9861    4.4826   52.8758 H       1  ZINC000545381384    0.0800
     56 H56       -10.3330    3.8523   52.6809 H       1  ZINC000545381384    0.0800
     57 H57       -11.3112    4.2432   51.2462 H       1  ZINC000545381384    0.1000
     58 H58        -7.8031    2.4033   53.2656 H       1  ZINC000545381384    0.1300
     59 H59        -5.7844    3.7697   53.1890 H       1  ZINC000545381384    0.1300
     60 H60        -4.2775    3.8932   55.1270 H       1  ZINC000545381384    0.1400
     61 H61        -4.7603    2.6554   57.1662 H       1  ZINC000545381384    0.1400
@<TRIPOS>BOND
     1     1     2    1
     2     1    31    1
     3     1    32    1
     4     1    33    1
     5     2     3    1
     6     2    34    1
     7     2    35    1
     8     3     8    1
     9     3     4    1
    10     4     5    1
    11     4    36    1
    12     4    37    1
    13     5     6    1
    14     5    38    1
    15     5    39    1
    16     6    30   ar
    17     6     7   ar
    18     7     8    1
    19     7     9   ar
    20     8    40    1
    21     8    41    1
    22     9    10    1
    23     9    24   ar
    24    10    11    2
    25    10    12   am
    26    12    13    1
    27    12    42    1
    28    13    22    1
    29    13    14    2
    30    14    15    1
    31    14    43    1
    32    15    16    1
    33    15    21    2
    34    16    17    1
    35    16    44    1
    36    16    45    1
    37    17    18    1
    38    17    19    1
    39    17    20    1
    40    18    46    1
    41    18    47    1
    42    18    48    1
    43    19    49    1
    44    19    50    1
    45    19    51    1
    46    20    52    1
    47    20    53    1
    48    20    54    1
    49    21    22    1
    50    22    23    1
    51    23    55    1
    52    23    56    1
    53    23    57    1
    54    24    29   ar
    55    24    25   ar
    56    25    26   ar
    57    25    58    1
    58    26    27   ar
    59    26    59    1
    60    27    28   ar
    61    27    60    1
    62    28    29   ar
    63    28    61    1
    64    29    30   ar
@<TRIPOS>SUBSTRUCTURE
     1 ZINC000545381384        1 TEMP              0 ****  ****    0 ROOT


##########                                Name:    ZINC000494558165
##########                DOCK_Rotatable_Bonds:                  11
##########                         Heavy_Atoms:                  28
##########                    Molecular_Weight:             409.506
##########                DOCK_Rotatable_Bonds:                  11
##########                       Formal_Charge:        -6.55651e-07
##########                     HBond_Acceptors:                   9
##########                        HBond_Donors:                   3
##########                         Heavy_Atoms:                  28
##########                          Grid_Score:          -28.850176
##########                     Grid_vdw_energy:          -28.491129
##########                      Grid_es_energy:           -0.359047
##########           Internal_energy_repulsive:           29.338907

@<TRIPOS>MOLECULE
ZINC000494558165
 55 57 1 0 0
SMALL
USER_CHARGES


@<TRIPOS>ATOM
      1 O1        -11.0123    1.7059   56.8634 O.2     1  ZINC000494558165   -0.4400
      2 C2        -10.0833    1.4585   57.6020 C.2     1  ZINC000494558165    0.5100
      3 C3        -10.3442    0.9622   59.0008 C.3     1  ZINC000494558165    0.0300
      4 N4        -11.3521   -0.1057   58.9614 N.3     1  ZINC000494558165   -0.5000
      5 C5        -10.8675   -1.2589   58.1913 C.3     1  ZINC000494558165    0.0500
      6 C6        -12.0602   -2.0260   57.6167 C.3     1  ZINC000494558165   -0.1100
      7 C7        -11.5549   -3.2171   56.8002 C.3     1  ZINC000494558165    0.0800
      8 O8        -12.6608   -4.0403   56.4242 O.3     1  ZINC000494558165   -0.5700
      9 C9        -11.7470   -0.5070   60.3183 C.3     1  ZINC000494558165    0.1200
     10 H10       -11.7641   -1.5938   60.4006 H       1  ZINC000494558165    0.1000
     11 C11       -13.1315    0.0784   60.6684 C.3     1  ZINC000494558165   -0.1200
     12 C12       -12.7637    1.4074   61.3617 C.3     1  ZINC000494558165   -0.0900
     13 C13       -11.3818    1.1845   61.9377 C.ar    1  ZINC000494558165   -0.0900
     14 C14       -10.6903    1.8884   62.9090 C.ar    1  ZINC000494558165   -0.1100
     15 C15        -9.4192    1.4948   63.2803 C.ar    1  ZINC000494558165   -0.1100
     16 C16        -8.8352    0.3948   62.6809 C.ar    1  ZINC000494558165   -0.1200
     17 C17        -9.5236   -0.3088   61.7116 C.ar    1  ZINC000494558165   -0.1000
     18 C18       -10.7960    0.0821   61.3380 C.ar    1  ZINC000494558165   -0.1300
     19 N19        -8.8171    1.6219   57.1701 N.am    1  ZINC000494558165   -0.6900
     20 C20        -8.5838    2.0658   55.9190 C.2     1  ZINC000494558165    0.7000
     21 O21        -9.5152    2.3200   55.1808 O.2     1  ZINC000494558165   -0.5200
     22 N22        -7.3176    2.2277   55.4866 N.am    1  ZINC000494558165   -0.7300
     23 C23        -7.0640    2.7118   54.1274 C.3     1  ZINC000494558165    0.1700
     24 H24        -7.8540    3.4018   53.8308 H       1  ZINC000494558165    0.1200
     25 C25        -5.7043    3.4307   54.0795 C.3     1  ZINC000494558165   -0.1400
     26 C26        -5.3531    3.6163   52.5807 C.3     1  ZINC000494558165   -0.5800
     27 S27        -5.8269    2.0003   51.8572 S.o2    1  ZINC000494558165    2.4000
     28 O28        -6.5152    2.2161   50.6329 O.2     1  ZINC000494558165   -0.9300
     29 O29        -4.7110    1.1215   51.8963 O.2     1  ZINC000494558165   -0.9300
     30 C30        -7.0241    1.5191   53.1514 C.3     1  ZINC000494558165   -0.6200
     31 H31        -9.4192    0.5733   59.4267 H       1  ZINC000494558165    0.0700
     32 H32       -10.7098    1.7845   59.6157 H       1  ZINC000494558165    0.1200
     33 H33       -10.2327   -0.9109   57.3765 H       1  ZINC000494558165    0.0900
     34 H34       -10.2932   -1.9163   58.8441 H       1  ZINC000494558165    0.0400
     35 H35       -12.6884   -2.3846   58.4320 H       1  ZINC000494558165    0.0700
     36 H36       -12.6414   -1.3651   56.9737 H       1  ZINC000494558165    0.0800
     37 H37       -11.0499   -2.8556   55.9044 H       1  ZINC000494558165    0.0500
     38 H38       -10.8564   -3.7994   57.4011 H       1  ZINC000494558165    0.0400
     39 H39       -12.4067   -4.8665   55.9908 H       1  ZINC000494558165    0.3800
     40 H40       -13.7146    0.2608   59.7657 H       1  ZINC000494558165    0.0900
     41 H41       -13.6688   -0.5793   61.3517 H       1  ZINC000494558165    0.0800
     42 H42       -12.7442    2.2201   60.6355 H       1  ZINC000494558165    0.0800
     43 H43       -13.4744    1.6279   62.1581 H       1  ZINC000494558165    0.0800
     44 H44       -11.1459    2.7482   63.3776 H       1  ZINC000494558165    0.1200
     45 H45        -8.8826    2.0458   64.0385 H       1  ZINC000494558165    0.1300
     46 H46        -7.8414    0.0860   62.9697 H       1  ZINC000494558165    0.1200
     47 H47        -9.0664   -1.1679   61.2434 H       1  ZINC000494558165    0.1200
     48 H48        -8.0737    1.4202   57.7596 H       1  ZINC000494558165    0.4100
     49 H49        -6.5742    2.0237   56.0754 H       1  ZINC000494558165    0.4000
     50 H50        -5.7782    4.4021   54.5686 H       1  ZINC000494558165    0.1100
     51 H51        -4.9432    2.8229   54.5688 H       1  ZINC000494558165    0.0900
     52 H52        -5.9405    4.4234   52.1428 H       1  ZINC000494558165    0.1400
     53 H53        -4.2863    3.7994   52.4531 H       1  ZINC000494558165    0.1400
     54 H54        -6.6853    0.6193   53.6647 H       1  ZINC000494558165    0.1500
     55 H55        -8.0096    1.3583   52.7143 H       1  ZINC000494558165    0.1500
@<TRIPOS>BOND
     1     1     2    2
     2     2     3    1
     3     2    19   am
     4     3     4    1
     5     3    31    1
     6     3    32    1
     7     4     5    1
     8     4     9    1
     9     5     6    1
    10     5    33    1
    11     5    34    1
    12     6     7    1
    13     6    35    1
    14     6    36    1
    15     7     8    1
    16     7    37    1
    17     7    38    1
    18     8    39    1
    19     9    10    1
    20     9    18    1
    21     9    11    1
    22    11    12    1
    23    11    40    1
    24    11    41    1
    25    12    13    1
    26    12    42    1
    27    12    43    1
    28    13    18   ar
    29    13    14   ar
    30    14    15   ar
    31    14    44    1
    32    15    16   ar
    33    15    45    1
    34    16    17   ar
    35    16    46    1
    36    17    18   ar
    37    17    47    1
    38    19    20   am
    39    19    48    1
    40    20    21    2
    41    20    22   am
    42    22    23    1
    43    22    49    1
    44    23    24    1
    45    23    30    1
    46    23    25    1
    47    25    26    1
    48    25    50    1
    49    25    51    1
    50    26    27    1
    51    26    52    1
    52    26    53    1
    53    27    28    2
    54    27    29    2
    55    27    30    1
    56    30    54    1
    57    30    55    1
@<TRIPOS>SUBSTRUCTURE
     1 ZINC000494558165        1 TEMP              0 ****  ****    0 ROOT


##########                                Name:    ZINC000053543817
##########                DOCK_Rotatable_Bonds:                   7
##########                         Heavy_Atoms:                  25
##########                    Molecular_Weight:             350.458
##########                DOCK_Rotatable_Bonds:                   7
##########                       Formal_Charge:           0.0199998
##########                     HBond_Acceptors:                   6
##########                        HBond_Donors:                   2
##########                         Heavy_Atoms:                  25
##########                          Grid_Score:          -28.846258
##########                     Grid_vdw_energy:          -29.187523
##########                      Grid_es_energy:            0.341265
##########           Internal_energy_repulsive:           26.765987

@<TRIPOS>MOLECULE
ZINC000053543817
 55 56 1 0 0
SMALL
USER_CHARGES


@<TRIPOS>ATOM
      1 C1         -9.7662   -0.8884   53.0749 C.3     1  ZINC000053543817   -0.0700
      2 C2         -9.5814   -0.6938   54.5579 C.2     1  ZINC000053543817   -0.0200
      3 C3         -9.0249    0.3828   55.1476 C.2     1  ZINC000053543817   -0.1800
      4 C4         -9.0558    0.1439   56.5333 C.2     1  ZINC000053543817   -0.1900
      5 C5         -9.6293   -1.0632   56.7164 C.2     1  ZINC000053543817    0.0000
      6 C6         -9.8527   -1.6925   58.0699 C.3     1  ZINC000053543817   -0.0300
      7 C7         -9.7251   -0.6007   59.1390 C.3     1  ZINC000053543817   -0.0500
      8 C8        -10.9198    0.3502   59.0415 C.3     1  ZINC000053543817   -0.1500
      9 C9         -9.6992   -1.2462   60.5260 C.3     1  ZINC000053543817   -0.1400
     10 C10        -8.4291    0.1841   58.9176 C.3     1  ZINC000053543817   -0.1200
     11 C11        -8.5567    1.0302   57.6443 C.3     1  ZINC000053543817    0.2200
     12 H12        -9.2641    1.8422   57.8126 H       1  ZINC000053543817    0.1000
     13 N13        -7.2480    1.5824   57.2856 N.am    1  ZINC000053543817   -0.7100
     14 C14        -7.0458    2.9144   57.3216 C.2     1  ZINC000053543817    0.5100
     15 O15        -7.9476    3.6560   57.6495 O.2     1  ZINC000053543817   -0.5300
     16 C16        -5.6990    3.4821   56.9543 C.3     1  ZINC000053543817    0.1400
     17 H17        -5.5347    4.4106   57.5011 H       1  ZINC000053543817    0.1200
     18 C18        -5.6561    3.7614   55.4507 C.3     1  ZINC000053543817   -0.1600
     19 N19        -4.6516    2.5186   57.3022 N.am    1  ZINC000053543817   -0.7000
     20 C20        -3.3589    2.9001   57.3048 C.2     1  ZINC000053543817    0.6600
     21 O21        -3.0621    4.0428   57.0171 O.2     1  ZINC000053543817   -0.5700
     22 O22        -2.3966    2.0152   57.6260 O.3     1  ZINC000053543817   -0.3600
     23 C23        -1.1796    2.5483   58.2119 C.3     1  ZINC000053543817    0.1400
     24 C24        -0.3957    3.3181   57.1471 C.3     1  ZINC000053543817   -0.1800
     25 C25        -1.5380    3.4909   59.3625 C.3     1  ZINC000053543817   -0.1400
     26 C26        -0.3228    1.3974   58.7434 C.3     1  ZINC000053543817   -0.1800
     27 O27        -9.9491   -1.5627   55.5166 O.3     1  ZINC000053543817   -0.1700
     28 H28       -10.2474   -1.8491   52.8918 H       1  ZINC000053543817    0.0800
     29 H29       -10.3908   -0.0878   52.6785 H       1  ZINC000053543817    0.0800
     30 H30        -8.7943   -0.8690   52.5820 H       1  ZINC000053543817    0.0800
     31 H31        -8.6315    1.2582   54.6524 H       1  ZINC000053543817    0.1400
     32 H32       -10.8501   -2.1302   58.1103 H       1  ZINC000053543817    0.0900
     33 H33        -9.1030   -2.4645   58.2433 H       1  ZINC000053543817    0.0900
     34 H34       -11.8424   -0.2080   59.2004 H       1  ZINC000053543817    0.0600
     35 H35       -10.8293    1.1264   59.8015 H       1  ZINC000053543817    0.0600
     36 H36       -10.9387    0.8097   58.0534 H       1  ZINC000053543817    0.0600
     37 H37        -8.8485   -1.9241   60.5955 H       1  ZINC000053543817    0.0600
     38 H38        -9.6086   -0.4703   61.2862 H       1  ZINC000053543817    0.0600
     39 H39       -10.6223   -1.8040   60.6845 H       1  ZINC000053543817    0.0600
     40 H40        -8.2493    0.8372   59.7715 H       1  ZINC000053543817    0.0800
     41 H41        -7.5969   -0.5116   58.8102 H       1  ZINC000053543817    0.0700
     42 H42        -6.5271    0.9892   57.0222 H       1  ZINC000053543817    0.4000
     43 H43        -6.4354    4.4782   55.1918 H       1  ZINC000053543817    0.0800
     44 H44        -4.6820    4.1719   55.1850 H       1  ZINC000053543817    0.0800
     45 H45        -5.8204    2.8328   54.9039 H       1  ZINC000053543817    0.0700
     46 H46        -4.8884    1.6062   57.5307 H       1  ZINC000053543817    0.4200
     47 H47        -1.0061    4.1380   56.7685 H       1  ZINC000053543817    0.0600
     48 H48         0.5179    3.7183   57.5869 H       1  ZINC000053543817    0.0700
     49 H49        -0.1404    2.6465   56.3274 H       1  ZINC000053543817    0.0900
     50 H50        -2.0964    2.9424   60.1211 H       1  ZINC000053543817    0.0700
     51 H51        -0.6243    3.8910   59.8022 H       1  ZINC000053543817    0.0800
     52 H52        -2.1483    4.3108   58.9839 H       1  ZINC000053543817    0.0700
     53 H53        -0.0676    0.7258   57.9237 H       1  ZINC000053543817    0.0900
     54 H54         0.5907    1.7975   59.1832 H       1  ZINC000053543817    0.0700
     55 H55        -0.8814    0.8490   59.5019 H       1  ZINC000053543817    0.0600
@<TRIPOS>BOND
     1     1     2    1
     2     1    28    1
     3     1    29    1
     4     1    30    1
     5     2    27    1
     6     2     3    2
     7     3     4    1
     8     3    31    1
     9     4    11    1
    10     4     5    2
    11     5     6    1
    12     5    27    1
    13     6     7    1
    14     6    32    1
    15     6    33    1
    16     7     8    1
    17     7     9    1
    18     7    10    1
    19     8    34    1
    20     8    35    1
    21     8    36    1
    22     9    37    1
    23     9    38    1
    24     9    39    1
    25    10    11    1
    26    10    40    1
    27    10    41    1
    28    11    12    1
    29    11    13    1
    30    13    14   am
    31    13    42    1
    32    14    15    2
    33    14    16    1
    34    16    17    1
    35    16    18    1
    36    16    19    1
    37    18    43    1
    38    18    44    1
    39    18    45    1
    40    19    20   am
    41    19    46    1
    42    20    21    2
    43    20    22    1
    44    22    23    1
    45    23    24    1
    46    23    25    1
    47    23    26    1
    48    24    47    1
    49    24    48    1
    50    24    49    1
    51    25    50    1
    52    25    51    1
    53    25    52    1
    54    26    53    1
    55    26    54    1
    56    26    55    1
@<TRIPOS>SUBSTRUCTURE
     1 ZINC000053543817        1 TEMP              0 ****  ****    0 ROOT


##########                                Name:    ZINC000991934963
##########                DOCK_Rotatable_Bonds:                   8
##########                         Heavy_Atoms:                  27
##########                    Molecular_Weight:             370.495
##########                DOCK_Rotatable_Bonds:                   8
##########                       Formal_Charge:          -0.0499997
##########                     HBond_Acceptors:                   6
##########                        HBond_Donors:                   1
##########                         Heavy_Atoms:                  27
##########                          Grid_Score:          -28.825394
##########                     Grid_vdw_energy:          -27.883461
##########                      Grid_es_energy:           -0.941933
##########           Internal_energy_repulsive:           14.998820

@<TRIPOS>MOLECULE
ZINC000991934963
 57 61 1 0 0
SMALL
USER_CHARGES


@<TRIPOS>ATOM
      1 C1        -10.4415   -3.5757   58.2692 C.3     1  ZINC000991934963    0.0400
      2 O2         -9.7084   -3.1413   57.1220 O.3     1  ZINC000991934963   -0.2900
      3 C3        -10.2443   -2.1311   56.3959 C.ar    1  ZINC000991934963    0.5000
      4 N4        -11.4371   -1.6625   56.7244 N.ar    1  ZINC000991934963   -0.5700
      5 C5        -11.9897   -0.6765   56.0366 C.ar    1  ZINC000991934963    0.1900
      6 C6        -11.3032   -0.1352   54.9615 C.ar    1  ZINC000991934963   -0.2700
      7 C7        -10.0558   -0.6505   54.6456 C.ar    1  ZINC000991934963    0.2200
      8 C8         -9.2720   -0.0937   53.4851 C.3     1  ZINC000991934963    0.1000
      9 N9         -8.2856    0.8757   53.9805 N.3     1  ZINC000991934963   -0.4900
     10 C10        -8.9564    2.0000   54.7069 C.3     1  ZINC000991934963    0.0400
     11 C11        -8.4250    3.3211   54.0673 C.3     1  ZINC000991934963   -0.1400
     12 C12        -7.0908    2.8565   53.4872 C.3     1  ZINC000991934963    0.1700
     13 N13        -6.0565    2.7125   54.5146 N.am    1  ZINC000991934963   -0.7000
     14 C14        -5.5910    3.8007   55.1593 C.2     1  ZINC000991934963    0.5200
     15 O15        -6.0273    4.8992   54.8879 O.2     1  ZINC000991934963   -0.5300
     16 C16        -4.5282    3.6523   56.2174 C.3     1  ZINC000991934963   -0.1100
     17 C17        -3.1931    4.1663   55.6749 C.3     1  ZINC000991934963   -0.1300
     18 H18        -2.9885    5.2221   55.8528 H       1  ZINC000991934963    0.1200
     19 C19        -2.6801    3.5577   54.3683 C.3     1  ZINC000991934963   -0.1700
     20 C20        -2.0044    3.2032   55.6952 C.3     1  ZINC000991934963   -0.1200
     21 H21        -2.1735    2.2034   56.0948 H       1  ZINC000991934963    0.1000
     22 C22        -0.6192    3.7954   55.9630 C.3     1  ZINC000991934963   -0.1200
     23 C23        -0.5025    4.8489   57.0662 C.3     1  ZINC000991934963   -0.1800
     24 C24         0.0556    3.4420   57.2899 C.3     1  ZINC000991934963   -0.1800
     25 C25        -6.5642    3.4891   52.2035 C.3     1  ZINC000991934963   -0.1200
     26 C26        -5.7706    2.3141   51.5516 C.3     1  ZINC000991934963   -0.1200
     27 C27        -6.4133    1.0062   52.1051 C.3     1  ZINC000991934963   -0.1000
     28 C28        -7.5802    1.4815   52.9030 C.3     1  ZINC000991934963    0.0500
     29 H29        -8.3419    1.7698   52.1786 H       1  ZINC000991934963    0.0400
     30 N30        -9.5596   -1.6334   55.3787 N.ar    1  ZINC000991934963   -0.5000
     31 H31       -11.4257   -3.9276   57.9597 H       1  ZINC000991934963    0.0600
     32 H32        -9.9030   -4.3871   58.7588 H       1  ZINC000991934963    0.1100
     33 H33       -10.5552   -2.7437   58.9642 H       1  ZINC000991934963    0.0600
     34 H34       -12.9640   -0.2985   56.3094 H       1  ZINC000991934963    0.1700
     35 H35       -11.7306    0.6700   54.3824 H       1  ZINC000991934963    0.1500
     36 H36        -8.7571   -0.9057   52.9714 H       1  ZINC000991934963    0.1000
     37 H37        -9.9517    0.4016   52.7918 H       1  ZINC000991934963    0.0600
     38 H38       -10.0373    1.9331   54.5828 H       1  ZINC000991934963    0.0600
     39 H39        -8.6988    1.9674   55.7656 H       1  ZINC000991934963    0.0800
     40 H40        -9.0932    3.6720   53.2809 H       1  ZINC000991934963    0.0800
     41 H41        -8.2761    4.0907   54.8247 H       1  ZINC000991934963    0.0900
     42 H42        -5.7065    1.8340   54.7308 H       1  ZINC000991934963    0.4000
     43 H43        -4.8091    4.2301   57.0980 H       1  ZINC000991934963    0.1000
     44 H44        -4.4296    2.6013   56.4887 H       1  ZINC000991934963    0.0900
     45 H45        -3.2938    2.7912   53.8951 H       1  ZINC000991934963    0.0900
     46 H46        -2.1378    4.2131   53.6867 H       1  ZINC000991934963    0.1000
     47 H47         0.0204    3.9096   55.0877 H       1  ZINC000991934963    0.1000
     48 H48         0.2140    5.6567   56.9169 H       1  ZINC000991934963    0.0900
     49 H49        -1.4125    5.1203   57.6013 H       1  ZINC000991934963    0.0900
     50 H50        -0.4872    2.7878   57.9721 H       1  ZINC000991934963    0.0900
     51 H51         1.1392    3.3242   57.2878 H       1  ZINC000991934963    0.0900
     52 H52        -7.3865    3.8045   51.5614 H       1  ZINC000991934963    0.0800
     53 H53        -5.9028    4.3262   52.4271 H       1  ZINC000991934963    0.0800
     54 H54        -5.8684    2.3508   50.4667 H       1  ZINC000991934963    0.0700
     55 H55        -4.7199    2.3664   51.8368 H       1  ZINC000991934963    0.0700
     56 H56        -6.7457    0.3683   51.2862 H       1  ZINC000991934963    0.0700
     57 H57        -5.7070    0.4740   52.7421 H       1  ZINC000991934963    0.0700
@<TRIPOS>BOND
     1     1     2    1
     2     1    31    1
     3     1    32    1
     4     1    33    1
     5     2     3    1
     6     3    30   ar
     7     3     4   ar
     8     4     5   ar
     9     5     6   ar
    10     5    34    1
    11     6     7   ar
    12     6    35    1
    13     7     8    1
    14     7    30   ar
    15     8     9    1
    16     8    36    1
    17     8    37    1
    18     9    28    1
    19     9    10    1
    20    10    11    1
    21    10    38    1
    22    10    39    1
    23    11    12    1
    24    11    40    1
    25    11    41    1
    26    12    28    1
    27    12    13    1
    28    12    25    1
    29    13    14   am
    30    13    42    1
    31    14    15    2
    32    14    16    1
    33    16    17    1
    34    16    43    1
    35    16    44    1
    36    17    18    1
    37    17    20    1
    38    17    19    1
    39    19    20    1
    40    19    45    1
    41    19    46    1
    42    20    21    1
    43    20    22    1
    44    22    24    1
    45    22    23    1
    46    22    47    1
    47    23    24    1
    48    23    48    1
    49    23    49    1
    50    24    50    1
    51    24    51    1
    52    25    26    1
    53    25    52    1
    54    25    53    1
    55    26    27    1
    56    26    54    1
    57    26    55    1
    58    27    28    1
    59    27    56    1
    60    27    57    1
    61    28    29    1
@<TRIPOS>SUBSTRUCTURE
     1 ZINC000991934963        1 TEMP              0 ****  ****    0 ROOT


##########                                Name:    ZINC000816269301
##########                DOCK_Rotatable_Bonds:                   7
##########                         Heavy_Atoms:                  25
##########                    Molecular_Weight:             358.784
##########                DOCK_Rotatable_Bonds:                   7
##########                       Formal_Charge:           0.0100002
##########                     HBond_Acceptors:                   8
##########                        HBond_Donors:                   1
##########                         Heavy_Atoms:                  25
##########                          Grid_Score:          -28.811365
##########                     Grid_vdw_energy:          -28.599705
##########                      Grid_es_energy:           -0.211661
##########           Internal_energy_repulsive:            5.456481

@<TRIPOS>MOLECULE
ZINC000816269301
 40 42 1 0 0
SMALL
USER_CHARGES


@<TRIPOS>ATOM
      1 C1         -5.7500    2.9461   51.5745 C.3     1  ZINC000816269301    0.1000
      2 N2         -6.6580    2.1143   52.3683 N.pl3   1  ZINC000816269301   -0.4000
      3 N3         -7.6623    1.2677   51.8774 N.2     1  ZINC000816269301    0.0000
      4 N4         -8.2606    0.6949   52.8616 N.2     1  ZINC000816269301   -0.2000
      5 C5         -7.7209    1.1013   54.0354 C.ar    1  ZINC000816269301   -0.0300
      6 C6         -7.9958    0.7910   55.3699 C.ar    1  ZINC000816269301    0.0500
      7 C7         -7.2492    1.3859   56.3800 C.ar    1  ZINC000816269301   -0.1400
      8 C8         -7.5334    1.0628   57.7917 C.2     1  ZINC000816269301    0.5200
      9 O9         -7.1857    1.8253   58.6712 O.2     1  ZINC000816269301   -0.5000
     10 O10        -8.1785   -0.0777   58.1051 O.3     1  ZINC000816269301   -0.3500
     11 C11        -8.3310   -0.3823   59.5166 C.3     1  ZINC000816269301    0.0500
     12 C12        -9.1252   -1.6803   59.6753 C.3     1  ZINC000816269301    0.1200
     13 N13       -10.4469   -1.5220   59.0636 N.am    1  ZINC000816269301   -0.7200
     14 C14       -11.5023   -2.2021   59.5538 C.2     1  ZINC000816269301    0.5600
     15 O15       -11.3576   -2.9456   60.5046 O.2     1  ZINC000816269301   -0.5300
     16 C16       -12.8351   -2.0437   58.9356 C.ar    1  ZINC000816269301   -0.1300
     17 C17       -13.9316   -2.7415   59.4454 C.ar    1  ZINC000816269301   -0.0700
     18 C18       -15.1729   -2.5896   58.8643 C.ar    1  ZINC000816269301   -0.1200
     19 C19       -15.3331   -1.7467   57.7769 C.ar    1  ZINC000816269301   -0.0100
     20 Cl20      -16.8990   -1.5601   57.0509 Cl      1  ZINC000816269301   -0.0600
     21 C21       -14.2490   -1.0518   57.2666 C.ar    1  ZINC000816269301   -0.1200
     22 C22       -13.0040   -1.1911   57.8429 C.ar    1  ZINC000816269301   -0.0500
     23 C23        -6.2264    2.2920   56.0628 C.ar    1  ZINC000816269301   -0.0200
     24 C24        -5.9538    2.5985   54.7632 C.ar    1  ZINC000816269301   -0.1300
     25 C25        -6.6868    2.0082   53.7364 C.ar    1  ZINC000816269301    0.1100
     26 H26        -4.8536    2.3756   51.3314 H       1  ZINC000816269301    0.0900
     27 H27        -6.2477    3.2506   50.6537 H       1  ZINC000816269301    0.1000
     28 H28        -5.4733    3.8310   52.1477 H       1  ZINC000816269301    0.1000
     29 H29        -8.7834    0.0937   55.6147 H       1  ZINC000816269301    0.1600
     30 H30        -7.3473   -0.5003   59.9712 H       1  ZINC000816269301    0.0800
     31 H31        -8.8633    0.4318   60.0085 H       1  ZINC000816269301    0.1000
     32 H32        -8.5927   -2.4946   59.1839 H       1  ZINC000816269301    0.1000
     33 H33        -9.2402   -1.9087   60.7348 H       1  ZINC000816269301    0.0900
     34 H34       -10.5626   -0.9277   58.3057 H       1  ZINC000816269301    0.4000
     35 H35       -13.8079   -3.3992   60.2930 H       1  ZINC000816269301    0.1400
     36 H36       -16.0218   -3.1291   59.2576 H       1  ZINC000816269301    0.1400
     37 H37       -14.3799   -0.3960   56.4185 H       1  ZINC000816269301    0.1400
     38 H38       -12.1595   -0.6485   57.4444 H       1  ZINC000816269301    0.1500
     39 H39        -5.6514    2.7501   56.8540 H       1  ZINC000816269301    0.1500
     40 H40        -5.1643    3.2973   54.5288 H       1  ZINC000816269301    0.1400
@<TRIPOS>BOND
     1     1     2    1
     2     1    26    1
     3     1    27    1
     4     1    28    1
     5     2    25    1
     6     2     3    1
     7     3     4    2
     8     4     5    1
     9     5    25   ar
    10     5     6   ar
    11     6     7   ar
    12     6    29    1
    13     7     8    1
    14     7    23   ar
    15     8     9    2
    16     8    10    1
    17    10    11    1
    18    11    12    1
    19    11    30    1
    20    11    31    1
    21    12    13    1
    22    12    32    1
    23    12    33    1
    24    13    14   am
    25    13    34    1
    26    14    15    2
    27    14    16    1
    28    16    22   ar
    29    16    17   ar
    30    17    18   ar
    31    17    35    1
    32    18    19   ar
    33    18    36    1
    34    19    20    1
    35    19    21   ar
    36    21    22   ar
    37    21    37    1
    38    22    38    1
    39    23    24   ar
    40    23    39    1
    41    24    25   ar
    42    24    40    1
@<TRIPOS>SUBSTRUCTURE
     1 ZINC000816269301        1 TEMP              0 ****  ****    0 ROOT


##########                                Name:    ZINC000000992968
##########                DOCK_Rotatable_Bonds:                   8
##########                         Heavy_Atoms:                  27
##########                    Molecular_Weight:             384.772
##########                DOCK_Rotatable_Bonds:                   8
##########                       Formal_Charge:           0.0199999
##########                     HBond_Acceptors:                   7
##########                        HBond_Donors:                   0
##########                         Heavy_Atoms:                  27
##########                          Grid_Score:          -28.809595
##########                     Grid_vdw_energy:          -29.196150
##########                      Grid_es_energy:            0.386555
##########           Internal_energy_repulsive:            9.992287

@<TRIPOS>MOLECULE
ZINC000000992968
 40 42 1 0 0
SMALL
USER_CHARGES


@<TRIPOS>ATOM
      1 O1         -9.2866    0.2591   63.5208 O.2     1  ZINC000000992968   -0.4600
      2 C2         -9.3445    0.4449   62.3202 C.2     1  ZINC000000992968    0.5600
      3 O3         -8.4535   -0.1521   61.5012 O.3     1  ZINC000000992968   -0.2900
      4 C4         -8.9228   -0.7512   60.3778 C.ar    1  ZINC000000992968    0.1200
      5 C5         -9.7401   -1.8716   60.4797 C.ar    1  ZINC000000992968   -0.1300
      6 C6        -10.2184   -2.4832   59.3435 C.ar    1  ZINC000000992968   -0.0400
      7 C7         -9.8810   -1.9751   58.0831 C.ar    1  ZINC000000992968   -0.1600
      8 C8        -10.3891   -2.6237   56.8670 C.2     1  ZINC000000992968    0.4000
      9 O9        -11.0328   -3.6483   56.9498 O.2     1  ZINC000000992968   -0.4200
     10 C10       -10.1107   -2.0158   55.5163 C.3     1  ZINC000000992968    0.0200
     11 O11       -10.9558   -0.8505   55.3265 O.3     1  ZINC000000992968   -0.3300
     12 C12       -10.8761   -0.2245   54.1362 C.2     1  ZINC000000992968    0.5100
     13 O13       -11.8866    0.0067   53.5027 O.2     1  ZINC000000992968   -0.5000
     14 C14        -9.5607    0.1805   53.6017 C.ar    1  ZINC000000992968   -0.1300
     15 C15        -8.8666   -0.6642   52.7325 C.ar    1  ZINC000000992968   -0.0500
     16 C16        -7.6388   -0.2800   52.2365 C.ar    1  ZINC000000992968   -0.1200
     17 C17        -7.0934    0.9408   52.5986 C.ar    1  ZINC000000992968    0.0000
     18 Cl18       -5.5469    1.4170   51.9702 Cl      1  ZINC000000992968   -0.0500
     19 C19        -7.7771    1.7832   53.4599 C.ar    1  ZINC000000992968   -0.1200
     20 C20        -9.0081    1.4127   53.9585 C.ar    1  ZINC000000992968   -0.0400
     21 C21        -9.0581   -0.8464   57.9860 C.ar    1  ZINC000000992968   -0.0600
     22 C22        -8.5895   -0.2392   59.1285 C.ar    1  ZINC000000992968   -0.1200
     23 C23       -10.3849    1.3119   61.7628 C.2     1  ZINC000000992968   -0.0700
     24 C24       -11.3117    2.0165   62.4785 C.2     1  ZINC000000992968   -0.0900
     25 C25       -12.1031    2.7044   61.5463 C.2     1  ZINC000000992968   -0.2300
     26 C26       -11.6316    2.3941   60.3180 C.2     1  ZINC000000992968    0.0200
     27 O27       -10.5930    1.5597   60.4529 O.3     1  ZINC000000992968   -0.1500
     28 H28        -9.9997   -2.2628   61.4524 H       1  ZINC000000992968    0.1400
     29 H29       -10.8525   -3.3537   59.4238 H       1  ZINC000000992968    0.1500
     30 H30        -9.0636   -1.7182   55.4608 H       1  ZINC000000992968    0.1100
     31 H31       -10.3220   -2.7486   54.7376 H       1  ZINC000000992968    0.1100
     32 H32        -9.2905   -1.6165   52.4501 H       1  ZINC000000992968    0.1500
     33 H33        -7.1011   -0.9323   51.5644 H       1  ZINC000000992968    0.1500
     34 H34        -7.3468    2.7338   53.7382 H       1  ZINC000000992968    0.1500
     35 H35        -9.5403    2.0705   54.6296 H       1  ZINC000000992968    0.1500
     36 H36        -8.7948   -0.4508   57.0161 H       1  ZINC000000992968    0.1400
     37 H37        -7.9549    0.6316   59.0547 H       1  ZINC000000992968    0.1400
     38 H38       -11.4149    2.0395   63.5533 H       1  ZINC000000992968    0.1700
     39 H39       -12.9330    3.3588   61.7684 H       1  ZINC000000992968    0.1700
     40 H40       -12.0254    2.7619   59.3820 H       1  ZINC000000992968    0.2200
@<TRIPOS>BOND
     1     1     2    2
     2     2     3    1
     3     2    23    1
     4     3     4    1
     5     4    22   ar
     6     4     5   ar
     7     5     6   ar
     8     5    28    1
     9     6     7   ar
    10     6    29    1
    11     7     8    1
    12     7    21   ar
    13     8     9    2
    14     8    10    1
    15    10    11    1
    16    10    30    1
    17    10    31    1
    18    11    12    1
    19    12    13    2
    20    12    14    1
    21    14    20   ar
    22    14    15   ar
    23    15    16   ar
    24    15    32    1
    25    16    17   ar
    26    16    33    1
    27    17    18    1
    28    17    19   ar
    29    19    20   ar
    30    19    34    1
    31    20    35    1
    32    21    22   ar
    33    21    36    1
    34    22    37    1
    35    23    27    1
    36    23    24    2
    37    24    25    1
    38    24    38    1
    39    25    26    2
    40    25    39    1
    41    26    27    1
    42    26    40    1
@<TRIPOS>SUBSTRUCTURE
     1 ZINC000000992968        1 TEMP              0 ****  ****    0 ROOT


##########                                Name:     oleObject15.pdb
##########                DOCK_Rotatable_Bonds:                   9
##########                         Heavy_Atoms:                  29
##########                    Molecular_Weight:             395.545
##########                DOCK_Rotatable_Bonds:                   9
##########                       Formal_Charge:         0.000700183
##########                     HBond_Acceptors:                   5
##########                        HBond_Donors:                   1
##########                         Heavy_Atoms:                  29
##########                          Grid_Score:          -28.790646
##########                     Grid_vdw_energy:          -28.373388
##########                      Grid_es_energy:           -0.417257
##########           Internal_energy_repulsive:           14.653661

@<TRIPOS>MOLECULE
oleObject15.pdb
 62 64 1 0 0
SMALL
NO_CHARGES


@<TRIPOS>ATOM
      1 O         -12.9834   -2.3885   59.0214 O.3     1  UNL        -0.3745
      2 C         -12.0320   -2.9955   58.1182 C.3     1  UNL         0.0600
      3 C         -10.6045   -2.6328   58.5894 C.3     1  UNL         0.0217
      4 N         -10.3765   -1.1849   58.8061 N.4     1  UNL        -0.3010
      5 C          -9.1829   -0.8620   59.6212 C.3     1  UNL        -0.0010
      6 C          -9.0814    0.6502   59.9168 C.3     1  UNL        -0.0289
      7 C          -9.1326    1.5179   58.6363 C.3     1  UNL         0.0382
      8 C         -10.3399    1.1000   57.7594 C.3     1  UNL        -0.0289
      9 C         -10.4386   -0.4276   57.5381 C.3     1  UNL        -0.0010
     10 C          -7.7941    1.4700   57.8581 C.2     1  UNL         0.2156
     11 O          -7.4836    0.5156   57.1687 O.2     1  UNL        -0.2774
     12 N          -6.9316    2.5581   57.9001 N.am    1  UNL        -0.3025
     13 C          -5.6247    2.6976   57.2307 C.3     1  UNL         0.0900
     14 C          -5.7075    3.4791   55.9207 C.ar    1  UNL        -0.0217
     15 C          -6.8750    3.4569   55.1312 C.ar    1  UNL        -0.0568
     16 C          -6.9298    4.1712   53.9232 C.ar    1  UNL        -0.0619
     17 C          -5.8195    4.9160   53.4960 C.ar    1  UNL        -0.0622
     18 C          -4.6553    4.9480   54.2795 C.ar    1  UNL        -0.0619
     19 C          -4.6008    4.2339   55.4876 C.ar    1  UNL        -0.0568
     20 C          -4.5783    3.3081   58.1583 C.ar    1  UNL         0.0652
     21 C          -4.9301    4.2217   59.1735 C.ar    1  UNL        -0.0383
     22 C          -3.9203    4.7560   59.9896 C.ar    1  UNL        -0.0588
     23 C          -2.5934    4.3596   59.7618 C.ar    1  UNL        -0.0438
     24 C          -2.3304    3.4455   58.7272 C.ar    1  UNL         0.0272
     25 N          -3.2989    2.9314   57.9422 N.ar    1  UNL        -0.2590
     26 C         -14.3849   -2.3476   58.6620 C.3     1  UNL         0.0599
     27 C         -14.9540   -3.7881   58.6238 C.3     1  UNL        -0.0364
     28 C         -15.0645   -1.5411   59.7917 C.3     1  UNL        -0.0364
     29 C         -14.5647   -1.6212   57.3055 C.3     1  UNL        -0.0364
     30 H         -12.1747   -2.6136   57.1001 H       1  UNL         0.0581
     31 H         -12.1440   -4.0848   58.0917 H       1  UNL         0.0581
     32 H          -9.9015   -2.9977   57.8297 H       1  UNL         0.0455
     33 H         -10.3938   -3.1789   59.5176 H       1  UNL         0.0455
     34 H          -8.2761   -1.1932   59.0991 H       1  UNL         0.0431
     35 H          -9.2235   -1.3848   60.5839 H       1  UNL         0.0431
     36 H          -8.1631    0.8543   60.4794 H       1  UNL         0.0288
     37 H          -9.9174    0.9328   60.5698 H       1  UNL         0.0288
     38 H          -9.3287    2.5474   58.9472 H       1  UNL         0.0402
     39 H         -10.2985    1.6154   56.7915 H       1  UNL         0.0288
     40 H         -11.2622    1.4340   58.2523 H       1  UNL         0.0288
     41 H          -9.6274   -0.7530   56.8750 H       1  UNL         0.0431
     42 H         -11.3848   -0.6422   57.0249 H       1  UNL         0.0431
     43 H          -7.2886    3.3791   58.3717 H       1  UNL         0.1504
     44 H          -5.2787    1.6820   56.9996 H       1  UNL         0.0624
     45 H          -7.7385    2.8785   55.4464 H       1  UNL         0.0626
     46 H          -7.8315    4.1452   53.3180 H       1  UNL         0.0623
     47 H          -5.8616    5.4680   52.5614 H       1  UNL         0.0623
     48 H          -3.7960    5.5261   53.9516 H       1  UNL         0.0623
     49 H          -3.6954    4.2662   56.0873 H       1  UNL         0.0626
     50 H          -5.9649    4.5123   59.3271 H       1  UNL         0.0643
     51 H          -4.1609    5.4615   60.7798 H       1  UNL         0.0624
     52 H          -1.7852    4.7513   60.3723 H       1  UNL         0.0639
     53 H          -1.3133    3.1150   58.5198 H       1  UNL         0.0840
     54 H         -14.7015   -4.3317   59.5432 H       1  UNL         0.0260
     55 H         -14.5614   -4.3552   57.7711 H       1  UNL         0.0260
     56 H         -16.0472   -3.7706   58.5307 H       1  UNL         0.0260
     57 H         -14.9155   -2.0288   60.7638 H       1  UNL         0.0260
     58 H         -16.1445   -1.4528   59.6186 H       1  UNL         0.0260
     59 H         -14.6469   -0.5280   59.8542 H       1  UNL         0.0260
     60 H         -14.1593   -2.2128   56.4755 H       1  UNL         0.0260
     61 H         -14.0578   -0.6477   57.3136 H       1  UNL         0.0260
     62 H         -15.6279   -1.4468   57.0973 H       1  UNL         0.0260
@<TRIPOS>BOND
     1     1     2    1
     2     1    26    1
     3     2     3    1
     4     2    30    1
     5     2    31    1
     6     3     4    1
     7     3    32    1
     8     3    33    1
     9     4     5    1
    10     4     9    1
    11     5     6    1
    12     5    34    1
    13     5    35    1
    14     6     7    1
    15     6    36    1
    16     6    37    1
    17     7     8    1
    18     7    10    1
    19     7    38    1
    20     8     9    1
    21     8    39    1
    22     8    40    1
    23     9    41    1
    24     9    42    1
    25    10    11    2
    26    10    12   am
    27    12    13    1
    28    12    43    1
    29    13    14    1
    30    13    20    1
    31    13    44    1
    32    14    15   ar
    33    14    19   ar
    34    15    16   ar
    35    15    45    1
    36    16    17   ar
    37    16    46    1
    38    17    18   ar
    39    17    47    1
    40    18    19   ar
    41    18    48    1
    42    19    49    1
    43    20    21   ar
    44    20    25   ar
    45    21    22   ar
    46    21    50    1
    47    22    23   ar
    48    22    51    1
    49    23    24   ar
    50    23    52    1
    51    24    25   ar
    52    24    53    1
    53    26    27    1
    54    26    28    1
    55    26    29    1
    56    27    54    1
    57    27    55    1
    58    27    56    1
    59    28    57    1
    60    28    58    1
    61    28    59    1
    62    29    60    1
    63    29    61    1
    64    29    62    1
@<TRIPOS>SUBSTRUCTURE
     1 UNL         1 TEMP              0 ****  ****    0 ROOT


##########                                Name:    ZINC000611836474
##########                DOCK_Rotatable_Bonds:                   7
##########                         Heavy_Atoms:                  22
##########                    Molecular_Weight:             366.258
##########                DOCK_Rotatable_Bonds:                   7
##########                       Formal_Charge:          -0.0300004
##########                     HBond_Acceptors:                   5
##########                        HBond_Donors:                   1
##########                         Heavy_Atoms:                  22
##########                          Grid_Score:          -28.776701
##########                     Grid_vdw_energy:          -28.345783
##########                      Grid_es_energy:           -0.430919
##########           Internal_energy_repulsive:            5.638041

@<TRIPOS>MOLECULE
ZINC000611836474
 42 43 1 0 0
SMALL
USER_CHARGES


@<TRIPOS>ATOM
      1 C1        -10.5311   -0.8324   53.5468 C.3     1  ZINC000611836474   -0.1500
      2 C2         -9.2776   -0.1041   54.0362 C.3     1  ZINC000611836474   -0.1400
      3 C3         -9.5610    0.5434   55.3931 C.3     1  ZINC000611836474    0.1300
      4 N4         -8.3141    1.0714   55.9522 N.pl3   1  ZINC000611836474   -0.3900
      5 N5         -7.1734    1.4346   55.2249 N.2     1  ZINC000611836474   -0.2900
      6 C6         -6.2664    1.8611   56.0660 C.2     1  ZINC000611836474    0.0600
      7 C7         -6.7948    1.7855   57.3576 C.2     1  ZINC000611836474   -0.2800
      8 C8         -8.0627    1.2998   57.2614 C.2     1  ZINC000611836474    0.3000
      9 N9         -8.9403    1.0713   58.3211 N.am    1  ZINC000611836474   -0.6500
     10 C10        -8.7720   -0.0044   59.1155 C.2     1  ZINC000611836474    0.5200
     11 O11        -7.8565   -0.7730   58.9098 O.2     1  ZINC000611836474   -0.4700
     12 C12        -9.7213   -0.2522   60.2593 C.3     1  ZINC000611836474    0.0700
     13 H13       -10.5809    0.4118   60.1684 H       1  ZINC000611836474    0.1100
     14 C14        -9.0055    0.0187   61.5840 C.3     1  ZINC000611836474   -0.1800
     15 O15       -10.1632   -1.6108   60.2258 O.3     1  ZINC000611836474   -0.2700
     16 C16       -11.4191   -1.8399   59.7595 C.ar    1  ZINC000611836474    0.1500
     17 C17       -12.5031   -1.1982   60.3393 C.ar    1  ZINC000611836474   -0.2000
     18 C18       -13.7792   -1.4327   59.8636 C.ar    1  ZINC000611836474   -0.0600
     19 C19       -13.9761   -2.3066   58.8107 C.ar    1  ZINC000611836474   -0.1100
     20 C20       -15.3690   -2.5606   58.2945 C.3     1  ZINC000611836474   -0.1100
     21 C21       -12.8973   -2.9477   58.2300 C.ar    1  ZINC000611836474   -0.0500
     22 C22       -11.6185   -2.7123   58.6981 C.ar    1  ZINC000611836474   -0.1200
     23 Br23      -10.1433   -3.5892   57.9039 Br      1  ZINC000611836474   -0.0300
     24 H24       -10.3292   -1.2936   52.5802 H       1  ZINC000611836474    0.0600
     25 H25       -10.8079   -1.6029   54.2664 H       1  ZINC000611836474    0.0600
     26 H26       -11.3492   -0.1192   53.4454 H       1  ZINC000611836474    0.0600
     27 H27        -8.4596   -0.8172   54.1376 H       1  ZINC000611836474    0.0800
     28 H28        -9.0009    0.6663   53.3166 H       1  ZINC000611836474    0.0600
     29 H29       -10.2751    1.3569   55.2654 H       1  ZINC000611836474    0.0800
     30 H30        -9.9766   -0.2017   56.0716 H       1  ZINC000611836474    0.1000
     31 H31        -5.2782    2.2111   55.8066 H       1  ZINC000611836474    0.1900
     32 H32        -6.2886    2.0659   58.2694 H       1  ZINC000611836474    0.1700
     33 H33        -9.6717    1.6866   58.4864 H       1  ZINC000611836474    0.4100
     34 H34        -8.6685    1.0550   61.6096 H       1  ZINC000611836474    0.0800
     35 H35        -9.6922   -0.1606   62.4114 H       1  ZINC000611836474    0.0800
     36 H36        -8.1459   -0.6453   61.6750 H       1  ZINC000611836474    0.0800
     37 H37       -12.3502   -0.5159   61.1626 H       1  ZINC000611836474    0.1400
     38 H38       -14.6235   -0.9331   60.3151 H       1  ZINC000611836474    0.1300
     39 H39       -15.6003   -1.8448   57.5057 H       1  ZINC000611836474    0.0700
     40 H40       -15.4296   -3.5731   57.8957 H       1  ZINC000611836474    0.0700
     41 H41       -16.0845   -2.4475   59.1090 H       1  ZINC000611836474    0.0700
     42 H42       -13.0537   -3.6300   57.4075 H       1  ZINC000611836474    0.1400
@<TRIPOS>BOND
     1     1     2    1
     2     1    24    1
     3     1    25    1
     4     1    26    1
     5     2     3    1
     6     2    27    1
     7     2    28    1
     8     3     4    1
     9     3    29    1
    10     3    30    1
    11     4     8    1
    12     4     5    1
    13     5     6    2
    14     6     7    1
    15     6    31    1
    16     7     8    2
    17     7    32    1
    18     8     9    1
    19     9    10   am
    20     9    33    1
    21    10    11    2
    22    10    12    1
    23    12    13    1
    24    12    14    1
    25    12    15    1
    26    14    34    1
    27    14    35    1
    28    14    36    1
    29    15    16    1
    30    16    22   ar
    31    16    17   ar
    32    17    18   ar
    33    17    37    1
    34    18    19   ar
    35    18    38    1
    36    19    20    1
    37    19    21   ar
    38    20    39    1
    39    20    40    1
    40    20    41    1
    41    21    22   ar
    42    21    42    1
    43    22    23    1
@<TRIPOS>SUBSTRUCTURE
     1 ZINC000611836474        1 TEMP              0 ****  ****    0 ROOT


##########                                Name:    ZINC000281257088
##########                DOCK_Rotatable_Bonds:                   8
##########                         Heavy_Atoms:                  27
##########                    Molecular_Weight:             395.541
##########                DOCK_Rotatable_Bonds:                   8
##########                       Formal_Charge:          -0.0200005
##########                     HBond_Acceptors:                   7
##########                        HBond_Donors:                   1
##########                         Heavy_Atoms:                  27
##########                          Grid_Score:          -28.772299
##########                     Grid_vdw_energy:          -27.552759
##########                      Grid_es_energy:           -1.219540
##########           Internal_energy_repulsive:           24.998516

@<TRIPOS>MOLECULE
ZINC000281257088
 57 58 1 0 0
SMALL
USER_CHARGES


@<TRIPOS>ATOM
      1 C1         -7.8581    2.2244   58.3479 C.3     1  ZINC000281257088   -0.0700
      2 C2         -8.3474    1.9850   56.9429 C.2     1  ZINC000281257088    0.1000
      3 N3         -7.6878    2.2518   55.8449 N.2     1  ZINC000281257088   -0.3000
      4 N4         -8.4860    1.8832   54.7543 N.pl3   1  ZINC000281257088   -0.3700
      5 C5         -8.1263    2.0132   53.3400 C.3     1  ZINC000281257088    0.1500
      6 C6         -6.9082    1.1370   53.0410 C.3     1  ZINC000281257088   -0.6400
      7 S7         -5.8326    1.9829   51.8501 S.o2    1  ZINC000281257088    2.4300
      8 C8         -5.1604    3.3391   52.8497 C.3     1  ZINC000281257088   -0.6500
      9 O9         -4.7689    1.1082   51.4999 O.2     1  ZINC000281257088   -0.9300
     10 O10        -6.6426    2.5366   50.8222 O.2     1  ZINC000281257088   -0.9300
     11 C11        -9.6446    1.3871   55.2365 C.2     1  ZINC000281257088    0.0900
     12 C12       -10.7983    0.8685   54.4172 C.3     1  ZINC000281257088   -0.1000
     13 C13        -9.5827    1.4335   56.5874 C.2     1  ZINC000281257088   -0.2300
     14 C14       -10.6582    0.9795   57.5403 C.3     1  ZINC000281257088    0.1400
     15 N15       -10.4751   -0.4464   57.8420 N.3     1  ZINC000281257088   -0.6700
     16 C16       -11.6514   -1.2261   57.4345 C.3     1  ZINC000281257088    0.1400
     17 H17       -11.9675   -0.9136   56.4392 H       1  ZINC000281257088    0.0500
     18 C18       -12.7728   -0.9928   58.4139 C.ar    1  ZINC000281257088   -0.0800
     19 C19       -12.4867   -0.6594   59.7247 C.ar    1  ZINC000281257088   -0.0600
     20 C20       -13.5142   -0.4452   60.6238 C.ar    1  ZINC000281257088   -0.1600
     21 C21       -14.8304   -0.5641   60.2112 C.ar    1  ZINC000281257088    0.1000
     22 F22       -15.8357   -0.3544   61.0891 F       1  ZINC000281257088   -0.1400
     23 C23       -15.1158   -0.8975   58.8980 C.ar    1  ZINC000281257088   -0.1600
     24 C24       -14.0867   -1.1066   57.9996 C.ar    1  ZINC000281257088   -0.0900
     25 C25       -11.2947   -2.7138   57.4127 C.3     1  ZINC000281257088   -0.0600
     26 C26       -12.5667   -3.5404   57.2134 C.3     1  ZINC000281257088   -0.1400
     27 C27       -10.3227   -2.9884   56.2634 C.3     1  ZINC000281257088   -0.1400
     28 C28       -10.6380   -3.1003   58.7395 C.3     1  ZINC000281257088   -0.1500
     29 H29        -7.3251    1.3422   58.7023 H       1  ZINC000281257088    0.0800
     30 H30        -7.1866    3.0830   58.3575 H       1  ZINC000281257088    0.0700
     31 H31        -8.7089    2.4214   59.0003 H       1  ZINC000281257088    0.0800
     32 H32        -8.9646    1.6934   52.7211 H       1  ZINC000281257088    0.1100
     33 H33        -7.8882    3.0538   53.1199 H       1  ZINC000281257088    0.1100
     34 H34        -6.3565    0.9548   53.9632 H       1  ZINC000281257088    0.1400
     35 H35        -7.2383    0.1867   52.6213 H       1  ZINC000281257088    0.1400
     36 H36        -4.6168    2.9284   53.7005 H       1  ZINC000281257088    0.1300
     37 H37        -4.4834    3.9383   52.2408 H       1  ZINC000281257088    0.1300
     38 H38        -5.9771    3.9655   53.2085 H       1  ZINC000281257088    0.1300
     39 H39       -10.6656   -0.1983   54.2371 H       1  ZINC000281257088    0.0800
     40 H40       -11.7305    1.0325   54.9577 H       1  ZINC000281257088    0.0900
     41 H41       -10.8333    1.3963   53.4641 H       1  ZINC000281257088    0.0700
     42 H42       -10.5940    1.5571   58.4625 H       1  ZINC000281257088    0.0800
     43 H43       -11.6362    1.1316   57.0837 H       1  ZINC000281257088    0.0300
     44 H44        -9.6368   -0.8031   57.4082 H       1  ZINC000281257088    0.3400
     45 H45       -11.4598   -0.5667   60.0463 H       1  ZINC000281257088    0.1400
     46 H46       -13.2904   -0.1855   61.6480 H       1  ZINC000281257088    0.1300
     47 H47       -16.1421   -0.9908   58.5751 H       1  ZINC000281257088    0.1300
     48 H48       -14.3090   -1.3664   56.9751 H       1  ZINC000281257088    0.1300
     49 H49       -13.0345   -3.2651   56.2682 H       1  ZINC000281257088    0.0600
     50 H50       -12.3126   -4.6002   57.1978 H       1  ZINC000281257088    0.0500
     51 H51       -13.2591   -3.3447   58.0321 H       1  ZINC000281257088    0.0600
     52 H52        -9.4166   -2.3995   56.4054 H       1  ZINC000281257088    0.0500
     53 H53       -10.0686   -4.0483   56.2479 H       1  ZINC000281257088    0.0600
     54 H54       -10.7906   -2.7131   55.3182 H       1  ZINC000281257088    0.0600
     55 H55       -11.3567   -2.9782   59.5497 H       1  ZINC000281257088    0.0500
     56 H56       -10.3136   -4.1400   58.6950 H       1  ZINC000281257088    0.0600
     57 H57        -9.7758   -2.4579   58.9187 H       1  ZINC000281257088    0.0600
@<TRIPOS>BOND
     1     1     2    1
     2     1    29    1
     3     1    30    1
     4     1    31    1
     5     2    13    1
     6     2     3    2
     7     3     4    1
     8     4     5    1
     9     4    11    1
    10     5     6    1
    11     5    32    1
    12     5    33    1
    13     6     7    1
    14     6    34    1
    15     6    35    1
    16     7     8    1
    17     7     9    2
    18     7    10    2
    19     8    36    1
    20     8    37    1
    21     8    38    1
    22    11    12    1
    23    11    13    2
    24    12    39    1
    25    12    40    1
    26    12    41    1
    27    13    14    1
    28    14    15    1
    29    14    42    1
    30    14    43    1
    31    15    16    1
    32    15    44    1
    33    16    17    1
    34    16    18    1
    35    16    25    1
    36    18    24   ar
    37    18    19   ar
    38    19    20   ar
    39    19    45    1
    40    20    21   ar
    41    20    46    1
    42    21    22    1
    43    21    23   ar
    44    23    24   ar
    45    23    47    1
    46    24    48    1
    47    25    26    1
    48    25    27    1
    49    25    28    1
    50    26    49    1
    51    26    50    1
    52    26    51    1
    53    27    52    1
    54    27    53    1
    55    27    54    1
    56    28    55    1
    57    28    56    1
    58    28    57    1
@<TRIPOS>SUBSTRUCTURE
     1 ZINC000281257088        1 TEMP              0 ****  ****    0 ROOT


##########                                Name:    ZINC000457806032
##########                DOCK_Rotatable_Bonds:                   8
##########                         Heavy_Atoms:                  24
##########                    Molecular_Weight:             387.911
##########                DOCK_Rotatable_Bonds:                   8
##########                       Formal_Charge:        -1.49012e-07
##########                     HBond_Acceptors:                   9
##########                        HBond_Donors:                   2
##########                         Heavy_Atoms:                  24
##########                          Grid_Score:          -28.767689
##########                     Grid_vdw_energy:          -28.458441
##########                      Grid_es_energy:           -0.309247
##########           Internal_energy_repulsive:            8.531188

@<TRIPOS>MOLECULE
ZINC000457806032
 42 43 1 0 0
SMALL
USER_CHARGES


@<TRIPOS>ATOM
      1 C1        -16.1354   -2.2226   56.8452 C.3     1  ZINC000457806032    0.0800
      2 N2        -15.2336   -1.9178   57.9589 N.am    1  ZINC000457806032   -1.0100
      3 C3        -15.1013   -0.5399   58.4382 C.3     1  ZINC000457806032    0.0900
      4 S4        -14.3639   -3.1310   58.6759 S.o2    1  ZINC000457806032    2.7900
      5 O5        -13.4865   -2.5031   59.6007 O.2     1  ZINC000457806032   -0.9700
      6 O6        -15.3023   -4.1302   59.0503 O.2     1  ZINC000457806032   -0.9700
      7 N7        -13.4054   -3.8047   57.5054 N.am    1  ZINC000457806032   -1.1300
      8 C8        -12.4183   -2.9808   56.8031 C.3     1  ZINC000457806032    0.1100
      9 C9        -11.0952   -3.0048   57.5709 C.3     1  ZINC000457806032    0.1100
     10 N10       -10.2441   -1.9043   57.1117 N.am    1  ZINC000457806032   -0.7300
     11 C11        -9.5689   -1.1560   58.0064 C.2     1  ZINC000457806032    0.5800
     12 O12        -9.6650   -1.3952   59.1951 O.2     1  ZINC000457806032   -0.5300
     13 C13        -8.7149   -0.0489   57.5449 C.2     1  ZINC000457806032   -0.1500
     14 C14        -7.8818    0.6407   58.3734 C.2     1  ZINC000457806032   -0.2200
     15 S15        -7.0455    1.8507   57.5094 S.3     1  ZINC000457806032    0.2400
     16 C16        -7.8415    1.4089   56.0069 C.2     1  ZINC000457806032   -0.1700
     17 C17        -7.6140    2.0649   54.7011 C.ar    1  ZINC000457806032   -0.0100
     18 C18        -8.6704    2.2224   53.8030 C.ar    1  ZINC000457806032   -0.0900
     19 C19        -8.4523    2.8350   52.5864 C.ar    1  ZINC000457806032   -0.1000
     20 C20        -7.1881    3.2927   52.2555 C.ar    1  ZINC000457806032   -0.0300
     21 Cl21       -6.9211    4.0622   50.7225 Cl      1  ZINC000457806032   -0.0600
     22 C22        -6.1362    3.1396   53.1427 C.ar    1  ZINC000457806032   -0.1000
     23 C23        -6.3436    2.5337   54.3646 C.ar    1  ZINC000457806032   -0.1000
     24 C24        -8.6822    0.3838   56.2183 C.2     1  ZINC000457806032   -0.0700
     25 H25       -15.5913   -2.1407   55.9043 H       1  ZINC000457806032    0.0600
     26 H26       -16.5195   -3.2367   56.9558 H       1  ZINC000457806032    0.0800
     27 H27       -16.9664   -1.5172   56.8471 H       1  ZINC000457806032    0.0800
     28 H28       -15.8362   -0.3556   59.2218 H       1  ZINC000457806032    0.0600
     29 H29       -14.0985   -0.3888   58.8377 H       1  ZINC000457806032    0.0700
     30 H30       -15.2708    0.1502   57.6117 H       1  ZINC000457806032    0.0700
     31 H31       -13.4975   -4.7447   57.2848 H       1  ZINC000457806032    0.4200
     32 H32       -12.2631   -3.3764   55.7993 H       1  ZINC000457806032    0.0700
     33 H33       -12.7818   -1.9553   56.7373 H       1  ZINC000457806032    0.0900
     34 H34       -11.2917   -2.8915   58.6371 H       1  ZINC000457806032    0.0800
     35 H35       -10.5893   -3.9539   57.3936 H       1  ZINC000457806032    0.0800
     36 H36       -10.1664   -1.7144   56.1636 H       1  ZINC000457806032    0.4000
     37 H37        -7.7669    0.4481   59.4299 H       1  ZINC000457806032    0.1700
     38 H38        -9.6568    1.8651   54.0598 H       1  ZINC000457806032    0.1400
     39 H39        -9.2691    2.9575   51.8906 H       1  ZINC000457806032    0.1400
     40 H40        -5.1523    3.4986   52.8792 H       1  ZINC000457806032    0.1400
     41 H41        -5.5224    2.4151   55.0561 H       1  ZINC000457806032    0.1300
     42 H42        -9.2826   -0.0588   55.4372 H       1  ZINC000457806032    0.1600
@<TRIPOS>BOND
     1     1     2    1
     2     1    25    1
     3     1    26    1
     4     1    27    1
     5     2     3    1
     6     2     4   am
     7     3    28    1
     8     3    29    1
     9     3    30    1
    10     4     5    2
    11     4     6    2
    12     4     7   am
    13     7     8    1
    14     7    31    1
    15     8     9    1
    16     8    32    1
    17     8    33    1
    18     9    10    1
    19     9    34    1
    20     9    35    1
    21    10    11   am
    22    10    36    1
    23    11    12    2
    24    11    13    1
    25    13    24    1
    26    13    14    2
    27    14    15    1
    28    14    37    1
    29    15    16    1
    30    16    17    1
    31    16    24    2
    32    17    23   ar
    33    17    18   ar
    34    18    19   ar
    35    18    38    1
    36    19    20   ar
    37    19    39    1
    38    20    21    1
    39    20    22   ar
    40    22    23   ar
    41    22    40    1
    42    23    41    1
    43    24    42    1
@<TRIPOS>SUBSTRUCTURE
     1 ZINC000457806032        1 TEMP              0 ****  ****    0 ROOT


##########                                Name:    ZINC001058079801
##########                DOCK_Rotatable_Bonds:                   7
##########                         Heavy_Atoms:                  24
##########                    Molecular_Weight:             349.457
##########                DOCK_Rotatable_Bonds:                   7
##########                       Formal_Charge:           0.0200001
##########                     HBond_Acceptors:                   8
##########                        HBond_Donors:                   0
##########                         Heavy_Atoms:                  24
##########                          Grid_Score:          -28.765682
##########                     Grid_vdw_energy:          -28.498299
##########                      Grid_es_energy:           -0.267384
##########           Internal_energy_repulsive:           33.374084

@<TRIPOS>MOLECULE
ZINC001058079801
 47 49 1 0 0
SMALL
USER_CHARGES


@<TRIPOS>ATOM
      1 C1         -6.9832    2.9559   54.7586 C.3     1  ZINC001058079801   -0.1500
      2 C2         -7.6734    2.5671   53.4496 C.3     1  ZINC001058079801   -0.1200
      3 C3         -7.0187    1.3056   52.8831 C.3     1  ZINC001058079801   -0.0300
      4 C4         -7.9841    0.1523   52.9789 C.2     1  ZINC001058079801    0.2900
      5 N5         -8.0416   -0.7543   52.0472 N.2     1  ZINC001058079801   -0.4800
      6 S6         -9.2415   -1.8508   52.5434 S.3     1  ZINC001058079801    0.1900
      7 C7         -9.6020   -1.0089   54.0028 C.2     1  ZINC001058079801    0.2700
      8 N8        -10.5370   -1.3505   54.9632 N.3     1  ZINC001058079801   -0.4300
      9 C9        -10.6561   -0.2975   55.9798 C.3     1  ZINC001058079801    0.0700
     10 C10       -11.7970   -0.6406   56.9402 C.3     1  ZINC001058079801   -0.1300
     11 C11       -11.5087   -1.9889   57.6064 C.3     1  ZINC001058079801    0.1300
     12 N12       -12.6253   -2.3504   58.4833 N.am    1  ZINC001058079801   -0.6100
     13 C13       -12.4004   -2.5292   59.9197 C.3     1  ZINC001058079801    0.0700
     14 C14       -13.8595   -2.5182   57.9683 C.2     1  ZINC001058079801    0.5200
     15 O15       -14.0459   -2.3686   56.7793 O.2     1  ZINC001058079801   -0.5300
     16 C16       -15.0077   -2.8917   58.8700 C.3     1  ZINC001058079801   -0.0600
     17 C17       -15.3584   -1.7187   59.7487 C.2     1  ZINC001058079801   -0.1900
     18 C18       -15.1844   -1.5974   61.0865 C.2     1  ZINC001058079801   -0.0400
     19 O19       -15.6437   -0.3832   61.4203 O.3     1  ZINC001058079801    0.1000
     20 N20       -16.0604    0.2152   60.4557 N.2     1  ZINC001058079801   -0.3600
     21 C21       -15.9396   -0.4877   59.3667 C.2     1  ZINC001058079801    0.0000
     22 C22       -11.3411   -3.0587   56.5239 C.3     1  ZINC001058079801   -0.1200
     23 C23       -10.2134   -2.6454   55.5754 C.3     1  ZINC001058079801    0.0400
     24 N24        -8.7900    0.0272   54.0077 N.2     1  ZINC001058079801   -0.5300
     25 H25        -7.4496    3.8547   55.1622 H       1  ZINC001058079801    0.0600
     26 H26        -7.0813    2.1419   55.4767 H       1  ZINC001058079801    0.0600
     27 H27        -5.9272    3.1483   54.5693 H       1  ZINC001058079801    0.0600
     28 H28        -8.7295    2.3747   53.6388 H       1  ZINC001058079801    0.0700
     29 H29        -7.5753    3.3812   52.7314 H       1  ZINC001058079801    0.0700
     30 H30        -6.7532    1.4714   51.8390 H       1  ZINC001058079801    0.1000
     31 H31        -6.1195    1.0750   53.4545 H       1  ZINC001058079801    0.0900
     32 H32        -9.7222   -0.2232   56.5368 H       1  ZINC001058079801    0.0600
     33 H33       -10.8652    0.6551   55.4931 H       1  ZINC001058079801    0.1000
     34 H34       -11.8751    0.1332   57.7039 H       1  ZINC001058079801    0.0800
     35 H35       -12.7335   -0.7016   56.3860 H       1  ZINC001058079801    0.0800
     36 H36       -10.5931   -1.9167   58.1935 H       1  ZINC001058079801    0.1000
     37 H37       -12.5449   -1.5778   60.4315 H       1  ZINC001058079801    0.0600
     38 H38       -13.1066   -3.2624   60.3096 H       1  ZINC001058079801    0.0800
     39 H39       -11.3823   -2.8808   60.0872 H       1  ZINC001058079801    0.0800
     40 H40       -15.8722   -3.1629   58.2639 H       1  ZINC001058079801    0.1100
     41 H41       -14.7203   -3.7390   59.4925 H       1  ZINC001058079801    0.1100
     42 H42       -14.7596   -2.3336   61.7526 H       1  ZINC001058079801    0.2200
     43 H43       -16.2318   -0.1919   58.3699 H       1  ZINC001058079801    0.1900
     44 H44       -11.0933   -4.0124   56.9900 H       1  ZINC001058079801    0.0900
     45 H45       -12.2704   -3.1576   55.9630 H       1  ZINC001058079801    0.0800
     46 H46       -10.1010   -3.3982   54.7951 H       1  ZINC001058079801    0.1000
     47 H47        -9.2816   -2.5601   56.1345 H       1  ZINC001058079801    0.0700
@<TRIPOS>BOND
     1     1     2    1
     2     1    25    1
     3     1    26    1
     4     1    27    1
     5     2     3    1
     6     2    28    1
     7     2    29    1
     8     3     4    1
     9     3    30    1
    10     3    31    1
    11     4    24    1
    12     4     5    2
    13     5     6    1
    14     6     7    1
    15     7     8    1
    16     7    24    2
    17     8    23    1
    18     8     9    1
    19     9    10    1
    20     9    32    1
    21     9    33    1
    22    10    11    1
    23    10    34    1
    24    10    35    1
    25    11    12    1
    26    11    22    1
    27    11    36    1
    28    12    13    1
    29    12    14   am
    30    13    37    1
    31    13    38    1
    32    13    39    1
    33    14    15    2
    34    14    16    1
    35    16    17    1
    36    16    40    1
    37    16    41    1
    38    17    21    1
    39    17    18    2
    40    18    19    1
    41    18    42    1
    42    19    20    1
    43    20    21    2
    44    21    43    1
    45    22    23    1
    46    22    44    1
    47    22    45    1
    48    23    46    1
    49    23    47    1
@<TRIPOS>SUBSTRUCTURE
     1 ZINC001058079801        1 TEMP              0 ****  ****    0 ROOT


##########                                Name:    ZINC001015955459
##########                DOCK_Rotatable_Bonds:                   6
##########                         Heavy_Atoms:                  24
##########                    Molecular_Weight:             347.844
##########                DOCK_Rotatable_Bonds:                   6
##########                       Formal_Charge:          -0.0200002
##########                     HBond_Acceptors:                   6
##########                        HBond_Donors:                   1
##########                         Heavy_Atoms:                  24
##########                          Grid_Score:          -28.753662
##########                     Grid_vdw_energy:          -27.886387
##########                      Grid_es_energy:           -0.867276
##########           Internal_energy_repulsive:           20.182968

@<TRIPOS>MOLECULE
ZINC001015955459
 46 48 1 0 0
SMALL
USER_CHARGES


@<TRIPOS>ATOM
      1 C1        -11.4603    3.0483   63.4305 C.3     1  ZINC001015955459   -0.1500
      2 C2        -10.6704    2.2178   62.4170 C.3     1  ZINC001015955459   -0.0300
      3 C3         -9.7879    3.1431   61.5767 C.3     1  ZINC001015955459   -0.1500
      4 C4         -9.8041    1.2246   63.1478 C.2     1  ZINC001015955459    0.0600
      5 C5         -9.2041    0.1259   62.6137 C.2     1  ZINC001015955459   -0.0800
      6 C6         -9.2796   -0.3178   61.2099 C.2     1  ZINC001015955459    0.6100
      7 O7        -10.2626   -0.0588   60.5423 O.2     1  ZINC001015955459   -0.5300
      8 N8         -8.2592   -1.0104   60.6663 N.am    1  ZINC001015955459   -0.7100
      9 C9         -8.3334   -1.4498   59.2708 C.3     1  ZINC001015955459    0.1400
     10 H10        -7.4329   -2.0011   58.9998 H       1  ZINC001015955459    0.1000
     11 C11        -9.5843   -2.3253   59.0505 C.3     1  ZINC001015955459   -0.1300
     12 C12       -10.4236   -1.5681   57.9991 C.3     1  ZINC001015955459    0.0200
     13 N13        -9.4405   -0.7242   57.2724 N.3     1  ZINC001015955459   -0.4900
     14 C14       -10.1069    0.3978   56.5977 C.3     1  ZINC001015955459    0.0800
     15 C15        -9.4580    0.6356   55.2586 C.ar    1  ZINC001015955459   -0.1100
     16 C16        -9.8499   -0.1054   54.1595 C.ar    1  ZINC001015955459   -0.1100
     17 C17        -9.2584    0.1156   52.9295 C.ar    1  ZINC001015955459   -0.1000
     18 C18        -8.2675    1.0702   52.8005 C.ar    1  ZINC001015955459   -0.1100
     19 C19        -7.8710    1.8086   53.9015 C.ar    1  ZINC001015955459   -0.0300
     20 Cl20       -6.6259    3.0076   53.7404 Cl      1  ZINC001015955459   -0.0700
     21 C21        -8.4669    1.5908   55.1307 C.ar    1  ZINC001015955459   -0.1000
     22 C22        -8.5208   -0.2359   58.3356 C.3     1  ZINC001015955459    0.0100
     23 N23        -8.5264   -0.4890   63.6206 N.2     1  ZINC001015955459   -0.4600
     24 C24        -8.6931    0.1995   64.7099 C.2     1  ZINC001015955459    0.1800
     25 O25        -9.4767    1.2555   64.4495 O.3     1  ZINC001015955459   -0.1900
     26 H26       -10.7678    3.5807   64.0823 H       1  ZINC001015955459    0.0600
     27 H27       -12.0870    3.7667   62.9019 H       1  ZINC001015955459    0.0700
     28 H28       -12.0890    2.3892   64.0291 H       1  ZINC001015955459    0.0600
     29 H29       -11.3629    1.6853   61.7650 H       1  ZINC001015955459    0.1300
     30 H30        -9.2252    2.5513   60.8546 H       1  ZINC001015955459    0.0600
     31 H31       -10.4146    3.8614   61.0480 H       1  ZINC001015955459    0.0700
     32 H32        -9.0955    3.6755   62.2285 H       1  ZINC001015955459    0.0600
     33 H33        -7.4756   -1.2179   61.1992 H       1  ZINC001015955459    0.4100
     34 H34        -9.2978   -3.3062   58.6715 H       1  ZINC001015955459    0.0800
     35 H35       -10.1430   -2.4280   59.9808 H       1  ZINC001015955459    0.0700
     36 H36       -10.9002   -2.2709   57.3155 H       1  ZINC001015955459    0.0900
     37 H37       -11.1724   -0.9447   58.4876 H       1  ZINC001015955459    0.0500
     38 H38       -11.1611    0.1609   56.4538 H       1  ZINC001015955459    0.0900
     39 H39       -10.0164    1.2953   57.2098 H       1  ZINC001015955459    0.0900
     40 H40       -10.6211   -0.8546   54.2608 H       1  ZINC001015955459    0.1300
     41 H41        -9.5678   -0.4608   52.0703 H       1  ZINC001015955459    0.1300
     42 H42        -7.8024    1.2395   51.8406 H       1  ZINC001015955459    0.1300
     43 H43        -8.1576    2.1665   55.9906 H       1  ZINC001015955459    0.1300
     44 H44        -8.9720    0.5953   58.8774 H       1  ZINC001015955459    0.0700
     45 H45        -7.5650    0.0636   57.9055 H       1  ZINC001015955459    0.0900
     46 H46        -8.2712   -0.0434   65.6739 H       1  ZINC001015955459    0.2600
@<TRIPOS>BOND
     1     1     2    1
     2     1    26    1
     3     1    27    1
     4     1    28    1
     5     2     3    1
     6     2     4    1
     7     2    29    1
     8     3    30    1
     9     3    31    1
    10     3    32    1
    11     4    25    1
    12     4     5    2
    13     5     6    1
    14     5    23    1
    15     6     7    2
    16     6     8   am
    17     8     9    1
    18     8    33    1
    19     9    10    1
    20     9    22    1
    21     9    11    1
    22    11    12    1
    23    11    34    1
    24    11    35    1
    25    12    13    1
    26    12    36    1
    27    12    37    1
    28    13    14    1
    29    13    22    1
    30    14    15    1
    31    14    38    1
    32    14    39    1
    33    15    21   ar
    34    15    16   ar
    35    16    17   ar
    36    16    40    1
    37    17    18   ar
    38    17    41    1
    39    18    19   ar
    40    18    42    1
    41    19    20    1
    42    19    21   ar
    43    21    43    1
    44    22    44    1
    45    22    45    1
    46    23    24    2
    47    24    25    1
    48    24    46    1
@<TRIPOS>SUBSTRUCTURE
     1 ZINC001015955459        1 TEMP              0 ****  ****    0 ROOT


##########                                Name:    ZINC001271977984
##########                DOCK_Rotatable_Bonds:                   7
##########                         Heavy_Atoms:                  24
##########                    Molecular_Weight:             328.371
##########                DOCK_Rotatable_Bonds:                   7
##########                       Formal_Charge:           0.0200001
##########                     HBond_Acceptors:                   7
##########                        HBond_Donors:                   0
##########                         Heavy_Atoms:                  24
##########                          Grid_Score:          -28.741045
##########                     Grid_vdw_energy:          -28.874683
##########                      Grid_es_energy:            0.133639
##########           Internal_energy_repulsive:           27.268431

@<TRIPOS>MOLECULE
ZINC001271977984
 44 46 1 0 0
SMALL
USER_CHARGES


@<TRIPOS>ATOM
      1 C1         -8.0080    0.6772   58.1215 C.3     1  ZINC001271977984   -0.1800
      2 C2         -8.8627   -0.3225   58.9032 C.3     1  ZINC001271977984    0.1700
      3 H3         -8.4034   -1.3097   58.8540 H       1  ZINC001271977984    0.1100
      4 C4         -8.9588    0.1158   60.3418 C.2     1  ZINC001271977984    0.2700
      5 N5         -8.6669   -0.6286   61.3657 N.2     1  ZINC001271977984   -0.4700
      6 C6         -8.8696    0.0907   62.5028 C.ar    1  ZINC001271977984    0.0200
      7 C7         -8.7237   -0.1895   63.8620 C.ar    1  ZINC001271977984   -0.0600
      8 C8         -9.0196    0.7796   64.7947 C.ar    1  ZINC001271977984   -0.1200
      9 C9         -9.4610    2.0309   64.3914 C.ar    1  ZINC001271977984   -0.0900
     10 C10        -9.6102    2.3217   63.0512 C.ar    1  ZINC001271977984   -0.0900
     11 C11        -9.3166    1.3583   62.0987 C.ar    1  ZINC001271977984    0.0100
     12 O12        -9.3528    1.3329   60.7482 O.3     1  ZINC001271977984   -0.2100
     13 N13       -10.2088   -0.3790   58.3175 N.3     1  ZINC001271977984   -0.5300
     14 C14       -10.2082   -1.1558   57.0708 C.3     1  ZINC001271977984    0.0000
     15 C15       -11.1781   -0.9243   59.2772 C.3     1  ZINC001271977984    0.0400
     16 C16       -12.5839   -0.4451   58.9102 C.3     1  ZINC001271977984    0.1200
     17 N17       -13.5030   -0.7375   60.0131 N.am    1  ZINC001271977984   -0.6000
     18 C18       -13.6333    0.2049   61.1272 C.3     1  ZINC001271977984    0.0800
     19 C19       -14.2284   -1.8732   60.0028 C.2     1  ZINC001271977984    0.6000
     20 O20       -14.9912   -2.1158   60.9183 O.2     1  ZINC001271977984   -0.5300
     21 C21       -14.0972   -2.8214   58.8817 C.2     1  ZINC001271977984   -0.0800
     22 C22       -15.1146   -3.4405   58.2231 C.2     1  ZINC001271977984    0.0200
     23 O23       -14.5561   -4.2135   57.2781 O.3     1  ZINC001271977984   -0.2000
     24 C24       -13.2252   -4.0727   57.3540 C.2     1  ZINC001271977984    0.1800
     25 N25       -12.9364   -3.2379   58.3068 N.2     1  ZINC001271977984   -0.4600
     26 H26        -7.9385    0.3602   57.0810 H       1  ZINC001271977984    0.0800
     27 H27        -8.4673    1.6644   58.1707 H       1  ZINC001271977984    0.0800
     28 H28        -7.0092    0.7191   58.5560 H       1  ZINC001271977984    0.0700
     29 H29        -8.3805   -1.1625   64.1812 H       1  ZINC001271977984    0.1400
     30 H30        -8.9073    0.5637   65.8470 H       1  ZINC001271977984    0.1400
     31 H31        -9.6900    2.7830   65.1320 H       1  ZINC001271977984    0.1400
     32 H32        -9.9545    3.2984   62.7446 H       1  ZINC001271977984    0.1400
     33 H33        -9.8736   -2.1727   57.2764 H       1  ZINC001271977984    0.0300
     34 H34       -11.2168   -1.1816   56.6584 H       1  ZINC001271977984    0.0700
     35 H35        -9.5337   -0.6896   56.3525 H       1  ZINC001271977984    0.1100
     36 H36       -11.1460   -2.0135   59.2468 H       1  ZINC001271977984    0.0500
     37 H37       -10.9278   -0.5813   60.2811 H       1  ZINC001271977984    0.0800
     38 H38       -12.5655    0.6293   58.7277 H       1  ZINC001271977984    0.0900
     39 H39       -12.9203   -0.9608   58.0107 H       1  ZINC001271977984    0.0900
     40 H40       -14.4802    0.8668   60.9461 H       1  ZINC001271977984    0.0600
     41 H41       -13.7951   -0.3472   62.0530 H       1  ZINC001271977984    0.0900
     42 H42       -12.7215    0.7964   61.2114 H       1  ZINC001271977984    0.0700
     43 H43       -16.1703   -3.3312   58.4229 H       1  ZINC001271977984    0.2300
     44 H44       -12.5065   -4.5717   56.7207 H       1  ZINC001271977984    0.2600
@<TRIPOS>BOND
     1     1     2    1
     2     1    26    1
     3     1    27    1
     4     1    28    1
     5     2     3    1
     6     2     4    1
     7     2    13    1
     8     4    12    1
     9     4     5    2
    10     5     6    1
    11     6    11   ar
    12     6     7   ar
    13     7     8   ar
    14     7    29    1
    15     8     9   ar
    16     8    30    1
    17     9    10   ar
    18     9    31    1
    19    10    11   ar
    20    10    32    1
    21    11    12    1
    22    13    14    1
    23    13    15    1
    24    14    33    1
    25    14    34    1
    26    14    35    1
    27    15    16    1
    28    15    36    1
    29    15    37    1
    30    16    17    1
    31    16    38    1
    32    16    39    1
    33    17    18    1
    34    17    19   am
    35    18    40    1
    36    18    41    1
    37    18    42    1
    38    19    20    2
    39    19    21    1
    40    21    25    1
    41    21    22    2
    42    22    23    1
    43    22    43    1
    44    23    24    1
    45    24    25    2
    46    24    44    1
@<TRIPOS>SUBSTRUCTURE
     1 ZINC001271977984        1 TEMP              0 ****  ****    0 ROOT


##########                                Name:    ZINC000632456679
##########                DOCK_Rotatable_Bonds:                   6
##########                         Heavy_Atoms:                  24
##########                    Molecular_Weight:              374.82
##########                DOCK_Rotatable_Bonds:                   6
##########                       Formal_Charge:          -0.0299999
##########                     HBond_Acceptors:                   9
##########                        HBond_Donors:                   1
##########                         Heavy_Atoms:                  24
##########                          Grid_Score:          -28.698166
##########                     Grid_vdw_energy:          -28.552084
##########                      Grid_es_energy:           -0.146083
##########           Internal_energy_repulsive:           33.971325

@<TRIPOS>MOLECULE
ZINC000632456679
 40 41 1 0 0
SMALL
USER_CHARGES


@<TRIPOS>ATOM
      1 C1        -10.7908   -1.9957   55.8831 C.3     1  ZINC000632456679   -0.1600
      2 C2        -11.4320   -1.0002   56.8521 C.3     1  ZINC000632456679    0.1900
      3 C3        -11.4569    0.3897   56.2131 C.3     1  ZINC000632456679   -0.2000
      4 C4        -12.8625   -1.4432   57.1656 C.3     1  ZINC000632456679   -0.6300
      5 S5        -12.8263   -3.0418   58.0222 S.o2    1  ZINC000632456679    2.4100
      6 C6        -14.5326   -3.1846   58.6214 C.3     1  ZINC000632456679   -0.6600
      7 O7        -12.5965   -4.0645   57.0627 O.2     1  ZINC000632456679   -0.9300
      8 O8        -11.9602   -2.9352   59.1436 O.2     1  ZINC000632456679   -0.9300
      9 N9        -10.6523   -0.9540   58.0915 N.am    1  ZINC000632456679   -0.7200
     10 C10       -11.0449   -0.1575   59.1053 C.2     1  ZINC000632456679    0.6200
     11 O11       -12.0452    0.5239   58.9907 O.2     1  ZINC000632456679   -0.5000
     12 C12       -10.2607   -0.1123   60.3541 C.2     1  ZINC000632456679   -0.0900
     13 C13       -10.6361    0.4595   61.5366 C.2     1  ZINC000632456679   -0.1300
     14 C14        -9.5279    0.2213   62.3954 C.2     1  ZINC000632456679    0.0400
     15 C15        -9.3980    0.6324   63.8154 C.ar    1  ZINC000632456679   -0.0500
     16 C16       -10.1422    1.7039   64.3040 C.ar    1  ZINC000632456679   -0.0600
     17 C17       -10.0181    2.0827   65.6255 C.ar    1  ZINC000632456679   -0.1100
     18 C18        -9.1564    1.4017   66.4663 C.ar    1  ZINC000632456679   -0.0700
     19 C19        -8.4135    0.3363   65.9890 C.ar    1  ZINC000632456679   -0.0800
     20 Cl20       -7.3342   -0.5129   67.0509 Cl      1  ZINC000632456679   -0.0400
     21 C21        -8.5342   -0.0564   64.6677 C.ar    1  ZINC000632456679    0.1400
     22 F22        -7.8093   -1.0967   64.2012 F       1  ZINC000632456679   -0.1100
     23 N23        -8.6453   -0.4337   61.6836 N.2     1  ZINC000632456679   -0.3200
     24 O24        -9.0350   -0.6318   60.5567 O.3     1  ZINC000632456679    0.1400
     25 H25        -9.7717   -1.6801   55.6596 H       1  ZINC000632456679    0.0900
     26 H26       -10.7731   -2.9858   56.3383 H       1  ZINC000632456679    0.0600
     27 H27       -11.3709   -2.0301   54.9609 H       1  ZINC000632456679    0.0700
     28 H28       -12.0370    0.3553   55.2910 H       1  ZINC000632456679    0.0800
     29 H29       -11.9138    1.0988   56.9034 H       1  ZINC000632456679    0.0800
     30 H30       -10.4378    0.7052   55.9897 H       1  ZINC000632456679    0.0900
     31 H31       -13.3415   -0.7001   57.8032 H       1  ZINC000632456679    0.1600
     32 H32       -13.4243   -1.5414   56.2368 H       1  ZINC000632456679    0.1400
     33 H33       -15.2179   -3.1689   57.7738 H       1  ZINC000632456679    0.1300
     34 H34       -14.6494   -4.1217   59.1657 H       1  ZINC000632456679    0.1300
     35 H35       -14.7559   -2.3490   59.2846 H       1  ZINC000632456679    0.1300
     36 H36        -9.8535   -1.4968   58.1825 H       1  ZINC000632456679    0.4200
     37 H37       -11.5584    0.9730   61.7654 H       1  ZINC000632456679    0.1900
     38 H38       -10.8153    2.2377   63.6496 H       1  ZINC000632456679    0.1500
     39 H39       -10.5954    2.9133   66.0040 H       1  ZINC000632456679    0.1500
     40 H40        -9.0628    1.7030   67.4991 H       1  ZINC000632456679    0.1500
@<TRIPOS>BOND
     1     1     2    1
     2     1    25    1
     3     1    26    1
     4     1    27    1
     5     2     3    1
     6     2     4    1
     7     2     9    1
     8     3    28    1
     9     3    29    1
    10     3    30    1
    11     4     5    1
    12     4    31    1
    13     4    32    1
    14     5     6    1
    15     5     7    2
    16     5     8    2
    17     6    33    1
    18     6    34    1
    19     6    35    1
    20     9    10   am
    21     9    36    1
    22    10    11    2
    23    10    12    1
    24    12    24    1
    25    12    13    2
    26    13    14    1
    27    13    37    1
    28    14    15    1
    29    14    23    2
    30    15    21   ar
    31    15    16   ar
    32    16    17   ar
    33    16    38    1
    34    17    18   ar
    35    17    39    1
    36    18    19   ar
    37    18    40    1
    38    19    20    1
    39    19    21   ar
    40    21    22    1
    41    23    24    1
@<TRIPOS>SUBSTRUCTURE
     1 ZINC000632456679        1 TEMP              0 ****  ****    0 ROOT


##########                                Name:    ZINC000119180466
##########                DOCK_Rotatable_Bonds:                  10
##########                         Heavy_Atoms:                  23
##########                    Molecular_Weight:             350.405
##########                DOCK_Rotatable_Bonds:                  10
##########                       Formal_Charge:           0.0299997
##########                     HBond_Acceptors:                   8
##########                        HBond_Donors:                   3
##########                         Heavy_Atoms:                  23
##########                          Grid_Score:          -28.691690
##########                     Grid_vdw_energy:          -27.580835
##########                      Grid_es_energy:           -1.110856
##########           Internal_energy_repulsive:           10.557423

@<TRIPOS>MOLECULE
ZINC000119180466
 44 44 1 0 0
SMALL
USER_CHARGES


@<TRIPOS>ATOM
      1 C1         -9.7125    0.7906   61.6687 C.3     1  ZINC000119180466   -0.1300
      2 S2        -10.5466    0.1699   60.1822 S.3     1  ZINC000119180466   -0.2200
      3 C3         -9.6388   -1.3565   59.8124 C.3     1  ZINC000119180466   -0.0700
      4 H4         -9.7214   -2.0418   60.6560 H       1  ZINC000119180466    0.1100
      5 C5         -8.1654   -1.0267   59.5657 C.3     1  ZINC000119180466    0.0800
      6 O6         -8.0647    0.2314   58.8955 O.3     1  ZINC000119180466   -0.5600
      7 C7        -10.2309   -2.0119   58.5630 C.3     1  ZINC000119180466    0.1900
      8 H8         -9.4747   -2.6366   58.0875 H       1  ZINC000119180466    0.1000
      9 C9        -11.4298   -2.8756   58.9597 C.3     1  ZINC000119180466   -0.1700
     10 N10       -10.6658   -0.9731   57.6262 N.am    1  ZINC000119180466   -0.7200
     11 C11       -10.5990   -1.1925   56.2981 C.2     1  ZINC000119180466    0.7100
     12 O12       -10.1790   -2.2533   55.8775 O.2     1  ZINC000119180466   -0.6000
     13 N13       -10.9977   -0.2362   55.4362 N.am    1  ZINC000119180466   -0.7400
     14 C14       -10.9267   -0.4753   53.9925 C.3     1  ZINC000119180466    0.2000
     15 H15       -10.9724   -1.5470   53.7991 H       1  ZINC000119180466    0.1000
     16 C16       -12.1029    0.2182   53.3023 C.3     1  ZINC000119180466   -0.1600
     17 C17        -9.6319    0.0774   53.4550 C.ar    1  ZINC000119180466   -0.0600
     18 C18        -8.8017   -0.7235   52.6932 C.ar    1  ZINC000119180466   -0.1100
     19 C19        -7.6140   -0.2164   52.2002 C.ar    1  ZINC000119180466   -0.0600
     20 C20        -7.2566    1.0917   52.4686 C.ar    1  ZINC000119180466   -0.1800
     21 C21        -5.9616    1.6444   51.9316 C.3     1  ZINC000119180466    0.5100
     22 F22        -5.6126    2.7942   52.6481 F       1  ZINC000119180466   -0.1800
     23 F23        -4.9525    0.6852   52.0690 F       1  ZINC000119180466   -0.1800
     24 F24        -6.1173    1.9670   50.5793 F       1  ZINC000119180466   -0.1800
     25 C25        -8.0873    1.8930   53.2292 C.ar    1  ZINC000119180466   -0.0600
     26 C26        -9.2770    1.3871   53.7190 C.ar    1  ZINC000119180466   -0.1100
     27 H27        -8.6609    0.9720   61.4463 H       1  ZINC000119180466    0.0800
     28 H28       -10.1823    1.7213   61.9870 H       1  ZINC000119180466    0.1000
     29 H29        -9.7930    0.0517   62.4660 H       1  ZINC000119180466    0.0800
     30 H30        -7.6405   -0.9732   60.5195 H       1  ZINC000119180466    0.0500
     31 H31        -7.7174   -1.8046   58.9476 H       1  ZINC000119180466    0.0600
     32 H32        -8.4441    0.9714   59.3891 H       1  ZINC000119180466    0.3800
     33 H33       -12.1861   -2.2510   59.4353 H       1  ZINC000119180466    0.0700
     34 H34       -11.8516   -3.3425   58.0696 H       1  ZINC000119180466    0.0700
     35 H35       -11.1062   -3.6485   59.6567 H       1  ZINC000119180466    0.0700
     36 H36       -11.0021   -0.1274   57.9617 H       1  ZINC000119180466    0.4100
     37 H37       -11.3316    0.6105   55.7717 H       1  ZINC000119180466    0.4000
     38 H38       -12.0501    0.0403   52.2283 H       1  ZINC000119180466    0.0700
     39 H39       -13.0394   -0.1817   53.6912 H       1  ZINC000119180466    0.0700
     40 H40       -12.0572    1.2898   53.4957 H       1  ZINC000119180466    0.0600
     41 H41        -9.0809   -1.7454   52.4836 H       1  ZINC000119180466    0.1300
     42 H42        -6.9651   -0.8424   51.6056 H       1  ZINC000119180466    0.1400
     43 H43        -7.8083    2.9151   53.4387 H       1  ZINC000119180466    0.1400
     44 H44        -9.9261    2.0131   54.3134 H       1  ZINC000119180466    0.1400
@<TRIPOS>BOND
     1     1     2    1
     2     1    27    1
     3     1    28    1
     4     1    29    1
     5     2     3    1
     6     3     4    1
     7     3     5    1
     8     3     7    1
     9     5     6    1
    10     5    30    1
    11     5    31    1
    12     6    32    1
    13     7     8    1
    14     7     9    1
    15     7    10    1
    16     9    33    1
    17     9    34    1
    18     9    35    1
    19    10    11   am
    20    10    36    1
    21    11    12    2
    22    11    13   am
    23    13    14    1
    24    13    37    1
    25    14    15    1
    26    14    16    1
    27    14    17    1
    28    16    38    1
    29    16    39    1
    30    16    40    1
    31    17    26   ar
    32    17    18   ar
    33    18    19   ar
    34    18    41    1
    35    19    20   ar
    36    19    42    1
    37    20    21    1
    38    20    25   ar
    39    21    22    1
    40    21    23    1
    41    21    24    1
    42    25    26   ar
    43    25    43    1
    44    26    44    1
@<TRIPOS>SUBSTRUCTURE
     1 ZINC000119180466        1 TEMP              0 ****  ****    0 ROOT


##########                                Name:    ZINC000517001504
##########                DOCK_Rotatable_Bonds:                   5
##########                         Heavy_Atoms:                  29
##########                    Molecular_Weight:             403.401
##########                DOCK_Rotatable_Bonds:                   5
##########                       Formal_Charge:          -0.0200002
##########                     HBond_Acceptors:                   7
##########                        HBond_Donors:                   0
##########                         Heavy_Atoms:                  29
##########                          Grid_Score:          -28.685444
##########                     Grid_vdw_energy:          -30.357386
##########                      Grid_es_energy:            1.671941
##########           Internal_energy_repulsive:           33.803650

@<TRIPOS>MOLECULE
ZINC000517001504
 49 52 1 0 0
SMALL
USER_CHARGES


@<TRIPOS>ATOM
      1 O1        -10.8754   -0.3485   56.7593 O.2     1  ZINC000517001504   -0.5200
      2 C2        -10.9397   -0.4235   57.9681 C.2     1  ZINC000517001504    0.5400
      3 N3        -10.3045    0.4853   58.7344 N.am    1  ZINC000517001504   -0.6100
      4 C4         -9.5222    1.5738   58.1273 C.3     1  ZINC000517001504    0.0600
      5 C5         -8.1371    1.5977   58.7835 C.3     1  ZINC000517001504    0.0500
      6 O6         -8.2898    1.6415   60.2042 O.3     1  ZINC000517001504   -0.3700
      7 C7         -8.9467    0.4987   60.7577 C.3     1  ZINC000517001504    0.1200
      8 H8         -8.3989   -0.4035   60.4855 H       1  ZINC000517001504    0.0800
      9 C9         -8.9957    0.6243   62.2587 C.ar    1  ZINC000517001504   -0.0600
     10 C10        -8.2133   -0.1987   63.0471 C.ar    1  ZINC000517001504   -0.0900
     11 C11        -8.2583   -0.0835   64.4239 C.ar    1  ZINC000517001504   -0.0700
     12 C12        -9.0852    0.8550   65.0123 C.ar    1  ZINC000517001504   -0.1800
     13 C13        -9.1347    0.9802   66.5134 C.3     1  ZINC000517001504    0.5100
     14 F14       -10.3774    1.4952   66.8976 F       1  ZINC000517001504   -0.1800
     15 F15        -8.9527   -0.2800   67.0927 F       1  ZINC000517001504   -0.1800
     16 F16        -8.1198    1.8420   66.9430 F       1  ZINC000517001504   -0.1800
     17 C17        -9.8666    1.6789   64.2239 C.ar    1  ZINC000517001504   -0.0700
     18 C18        -9.8187    1.5663   62.8470 C.ar    1  ZINC000517001504   -0.1000
     19 C19       -10.3780    0.4219   60.2027 C.3     1  ZINC000517001504    0.0900
     20 C20       -11.7348   -1.5292   58.6132 C.3     1  ZINC000517001504   -0.0600
     21 C21       -12.9189   -1.0207   59.3944 C.ar    1  ZINC000517001504   -0.0700
     22 C22       -13.3433    0.2851   59.2343 C.ar    1  ZINC000517001504   -0.1200
     23 C23       -14.4295    0.7516   59.9509 C.ar    1  ZINC000517001504   -0.1100
     24 C24       -15.0916   -0.0879   60.8272 C.ar    1  ZINC000517001504   -0.1100
     25 C25       -14.6677   -1.3939   60.9865 C.ar    1  ZINC000517001504   -0.1100
     26 C26       -13.5842   -1.8616   60.2667 C.ar    1  ZINC000517001504   -0.1000
     27 C27       -12.0743   -2.6848   57.6561 C.3     1  ZINC000517001504   -0.1600
     28 C28       -10.7659   -3.3150   58.0906 C.2     1  ZINC000517001504    0.3600
     29 O29        -9.9800   -4.0961   57.6106 O.2     1  ZINC000517001504   -0.4100
     30 C30       -10.8713   -2.5391   59.3886 C.3     1  ZINC000517001504   -0.1900
     31 H31        -9.4183    1.3982   57.0566 H       1  ZINC000517001504    0.1000
     32 H32       -10.0251    2.5259   58.2967 H       1  ZINC000517001504    0.0800
     33 H33        -7.5863    0.6995   58.5041 H       1  ZINC000517001504    0.0600
     34 H34        -7.5907    2.4794   58.4486 H       1  ZINC000517001504    0.1100
     35 H35        -7.5672   -0.9319   62.5874 H       1  ZINC000517001504    0.1400
     36 H36        -7.6476   -0.7270   65.0398 H       1  ZINC000517001504    0.1400
     37 H37       -10.5124    2.4123   64.6837 H       1  ZINC000517001504    0.1400
     38 H38       -10.4292    2.2101   62.2311 H       1  ZINC000517001504    0.1400
     39 H39       -10.9646    1.2582   60.5828 H       1  ZINC000517001504    0.0800
     40 H40       -10.8391   -0.5182   60.5054 H       1  ZINC000517001504    0.1100
     41 H41       -12.8260    0.9410   58.5498 H       1  ZINC000517001504    0.1300
     42 H42       -14.7607    1.7720   59.8265 H       1  ZINC000517001504    0.1300
     43 H43       -15.9397    0.2767   61.3876 H       1  ZINC000517001504    0.1300
     44 H44       -15.1847   -2.0498   61.6713 H       1  ZINC000517001504    0.1300
     45 H45       -13.2531   -2.8821   60.3912 H       1  ZINC000517001504    0.1200
     46 H46       -12.9545   -3.2550   57.9533 H       1  ZINC000517001504    0.1300
     47 H47       -12.0918   -2.3926   56.6062 H       1  ZINC000517001504    0.1100
     48 H48        -9.9213   -2.1297   59.7320 H       1  ZINC000517001504    0.1000
     49 H49       -11.4140   -3.0683   60.1718 H       1  ZINC000517001504    0.1400
@<TRIPOS>BOND
     1     1     2    2
     2     2     3   am
     3     2    20    1
     4     3    19    1
     5     3     4    1
     6     4     5    1
     7     4    31    1
     8     4    32    1
     9     5     6    1
    10     5    33    1
    11     5    34    1
    12     6     7    1
    13     7     8    1
    14     7     9    1
    15     7    19    1
    16     9    18   ar
    17     9    10   ar
    18    10    11   ar
    19    10    35    1
    20    11    12   ar
    21    11    36    1
    22    12    13    1
    23    12    17   ar
    24    13    14    1
    25    13    15    1
    26    13    16    1
    27    17    18   ar
    28    17    37    1
    29    18    38    1
    30    19    39    1
    31    19    40    1
    32    20    30    1
    33    20    21    1
    34    20    27    1
    35    21    26   ar
    36    21    22   ar
    37    22    23   ar
    38    22    41    1
    39    23    24   ar
    40    23    42    1
    41    24    25   ar
    42    24    43    1
    43    25    26   ar
    44    25    44    1
    45    26    45    1
    46    27    28    1
    47    27    46    1
    48    27    47    1
    49    28    29    2
    50    28    30    1
    51    30    48    1
    52    30    49    1
@<TRIPOS>SUBSTRUCTURE
     1 ZINC000517001504        1 TEMP              0 ****  ****    0 ROOT


##########                                Name:    ZINC001707804910
##########                DOCK_Rotatable_Bonds:                   4
##########                         Heavy_Atoms:                  26
##########                    Molecular_Weight:             358.403
##########                DOCK_Rotatable_Bonds:                   4
##########                       Formal_Charge:          -0.0399996
##########                     HBond_Acceptors:                  10
##########                        HBond_Donors:                   0
##########                         Heavy_Atoms:                  26
##########                          Grid_Score:          -28.682404
##########                     Grid_vdw_energy:          -28.038380
##########                      Grid_es_energy:           -0.644023
##########           Internal_energy_repulsive:            6.769536

@<TRIPOS>MOLECULE
ZINC001707804910
 48 51 1 0 0
SMALL
USER_CHARGES


@<TRIPOS>ATOM
      1 C1        -14.8886   -1.5473   60.9989 C.3     1  ZINC001707804910   -0.0700
      2 C2        -13.8868   -0.4219   60.9715 C.2     1  ZINC001707804910    0.0700
      3 N3        -13.9920    0.7146   61.6112 N.2     1  ZINC001707804910   -0.2800
      4 N4        -12.8575    1.4848   61.3247 N.pl3   1  ZINC001707804910   -0.3700
      5 C5        -12.5752    2.8276   61.8379 C.3     1  ZINC001707804910    0.0900
      6 C6        -12.0704    0.7713   60.4925 C.2     1  ZINC001707804910    0.0500
      7 C7        -10.7458    1.2131   59.9256 C.3     1  ZINC001707804910    0.1800
      8 N8         -9.7986    0.0966   59.9706 N.pl3   1  ZINC001707804910   -0.4600
      9 C9         -8.9618   -0.2353   60.9999 C.2     1  ZINC001707804910    0.1900
     10 C10        -8.8374    0.4855   62.3176 C.3     1  ZINC001707804910   -0.0700
     11 N11        -8.2927   -1.2905   60.6308 N.2     1  ZINC001707804910   -0.2800
     12 N12        -8.6469   -1.6452   59.4472 N.2     1  ZINC001707804910   -0.3000
     13 C13        -9.5723   -0.8316   58.9963 C.2     1  ZINC001707804910    0.3500
     14 N14       -10.1960   -0.8974   57.7605 N.3     1  ZINC001707804910   -0.4600
     15 C15       -10.2965   -2.2880   57.2944 C.3     1  ZINC001707804910    0.0200
     16 C16       -11.0429   -2.3200   55.9581 C.3     1  ZINC001707804910    0.0700
     17 O17       -10.3643   -1.4819   55.0187 O.3     1  ZINC001707804910   -0.3600
     18 C18       -10.2490   -0.1203   55.4403 C.3     1  ZINC001707804910    0.2000
     19 H19       -11.2437    0.3067   55.5680 H       1  ZINC001707804910    0.1000
     20 C20        -9.4934    0.6663   54.4003 C.2     1  ZINC001707804910    0.1600
     21 N21        -9.8597    1.8009   53.8753 N.2     1  ZINC001707804910   -0.2500
     22 N22        -8.9740    2.1830   53.0238 N.2     1  ZINC001707804910   -0.2900
     23 C23        -8.0126    1.3052   52.9766 C.2     1  ZINC001707804910    0.1700
     24 C24        -6.7835    1.3746   52.1074 C.3     1  ZINC001707804910   -0.0600
     25 O25        -8.3157    0.3290   53.8487 O.3     1  ZINC001707804910   -0.2200
     26 C26        -9.4947   -0.0660   56.7715 C.3     1  ZINC001707804910    0.0400
     27 C27       -12.6811   -0.4141   60.2625 C.2     1  ZINC001707804910   -0.2300
     28 H28       -14.6500   -2.2262   61.8176 H       1  ZINC001707804910    0.0800
     29 H29       -15.8890   -1.1398   61.1447 H       1  ZINC001707804910    0.0700
     30 H30       -14.8514   -2.0899   60.0543 H       1  ZINC001707804910    0.0800
     31 H31       -12.1176    2.7509   62.8243 H       1  ZINC001707804910    0.0800
     32 H32       -11.8928    3.3398   61.1597 H       1  ZINC001707804910    0.0900
     33 H33       -13.5053    3.3913   61.9118 H       1  ZINC001707804910    0.0900
     34 H34       -10.8814    1.5333   58.8925 H       1  ZINC001707804910    0.1100
     35 H35       -10.3571    2.0434   60.5152 H       1  ZINC001707804910    0.1200
     36 H36        -9.6081    0.1287   63.0010 H       1  ZINC001707804910    0.0900
     37 H37        -7.8541    0.2921   62.7460 H       1  ZINC001707804910    0.1000
     38 H38        -8.9603    1.5568   62.1587 H       1  ZINC001707804910    0.0700
     39 H39        -9.2964   -2.7011   57.1628 H       1  ZINC001707804910    0.0700
     40 H40       -10.8415   -2.8799   58.0300 H       1  ZINC001707804910    0.0900
     41 H41       -11.0698   -3.3423   55.5806 H       1  ZINC001707804910    0.1200
     42 H42       -12.0607   -1.9571   56.1008 H       1  ZINC001707804910    0.0700
     43 H43        -5.9897    1.8967   52.6418 H       1  ZINC001707804910    0.1000
     44 H44        -6.4538    0.3649   51.8630 H       1  ZINC001707804910    0.1000
     45 H45        -7.0178    1.9126   51.1889 H       1  ZINC001707804910    0.1100
     46 H46        -9.4543    0.9643   57.1251 H       1  ZINC001707804910    0.1000
     47 H47        -8.4817   -0.4434   56.6314 H       1  ZINC001707804910    0.0800
     48 H48       -12.3068   -1.2109   59.6369 H       1  ZINC001707804910    0.1500
@<TRIPOS>BOND
     1     1     2    1
     2     1    28    1
     3     1    29    1
     4     1    30    1
     5     2    27    1
     6     2     3    2
     7     3     4    1
     8     4     5    1
     9     4     6    1
    10     5    31    1
    11     5    32    1
    12     5    33    1
    13     6     7    1
    14     6    27    2
    15     7     8    1
    16     7    34    1
    17     7    35    1
    18     8    13    1
    19     8     9    1
    20     9    10    1
    21     9    11    2
    22    10    36    1
    23    10    37    1
    24    10    38    1
    25    11    12    1
    26    12    13    2
    27    13    14    1
    28    14    26    1
    29    14    15    1
    30    15    16    1
    31    15    39    1
    32    15    40    1
    33    16    17    1
    34    16    41    1
    35    16    42    1
    36    17    18    1
    37    18    19    1
    38    18    20    1
    39    18    26    1
    40    20    25    1
    41    20    21    2
    42    21    22    1
    43    22    23    2
    44    23    24    1
    45    23    25    1
    46    24    43    1
    47    24    44    1
    48    24    45    1
    49    26    46    1
    50    26    47    1
    51    27    48    1
@<TRIPOS>SUBSTRUCTURE
     1 ZINC001707804910        1 TEMP              0 ****  ****    0 ROOT


##########                                Name:    ZINC000543020509
##########                DOCK_Rotatable_Bonds:                   5
##########                         Heavy_Atoms:                  26
##########                    Molecular_Weight:              366.81
##########                DOCK_Rotatable_Bonds:                   5
##########                       Formal_Charge:               -0.02
##########                     HBond_Acceptors:                   8
##########                        HBond_Donors:                   1
##########                         Heavy_Atoms:                  26
##########                          Grid_Score:          -28.673725
##########                     Grid_vdw_energy:          -28.219790
##########                      Grid_es_energy:           -0.453935
##########           Internal_energy_repulsive:           16.701218

@<TRIPOS>MOLECULE
ZINC000543020509
 41 43 1 0 0
SMALL
USER_CHARGES


@<TRIPOS>ATOM
      1 C1         -7.6335    0.7233   52.1198 C.3     1  ZINC000543020509    0.0800
      2 N2         -6.5923    1.7478   52.2328 N.pl3   1  ZINC000543020509   -0.6200
      3 C3         -5.9290    2.2539   51.0286 C.3     1  ZINC000543020509    0.0900
      4 C4         -6.2334    2.2404   53.4842 C.ar    1  ZINC000543020509    0.2500
      5 C5         -5.2892    3.2582   53.6073 C.ar    1  ZINC000543020509   -0.2200
      6 C6         -4.9570    3.7235   54.8663 C.ar    1  ZINC000543020509    0.1400
      7 N7         -5.5187    3.2199   55.9449 N.ar    1  ZINC000543020509   -0.5000
      8 C8         -6.4234    2.2492   55.8758 C.ar    1  ZINC000543020509    0.1100
      9 C9         -7.0257    1.7175   57.1203 C.2     1  ZINC000543020509    0.5900
     10 O10        -6.3940    1.7386   58.1583 O.2     1  ZINC000543020509   -0.5000
     11 N11        -8.2742    1.2103   57.1015 N.am    1  ZINC000543020509   -0.6200
     12 C12        -8.8440    0.7095   58.2776 C.2     1  ZINC000543020509    0.3200
     13 N13        -8.5042    1.0441   59.5004 N.2     1  ZINC000543020509   -0.3100
     14 N14        -9.3094    0.3230   60.3916 N.pl3   1  ZINC000543020509   -0.3300
     15 C15        -9.2606    0.3948   61.7859 C.ar    1  ZINC000543020509    0.2200
     16 C16        -8.2322   -0.2255   62.4797 C.ar    1  ZINC000543020509   -0.1300
     17 C17        -8.1849   -0.1537   63.8584 C.ar    1  ZINC000543020509   -0.0500
     18 C18        -9.1617    0.5364   64.5582 C.ar    1  ZINC000543020509   -0.0600
     19 Cl19       -9.0889    0.6178   66.2908 Cl      1  ZINC000543020509   -0.0500
     20 C20       -10.1919    1.1598   63.8839 C.ar    1  ZINC000543020509   -0.0400
     21 C21       -10.2485    1.0995   62.4900 C.ar    1  ZINC000543020509   -0.0200
     22 C22       -11.3146    1.7441   61.7841 C.1     1  ZINC000543020509    0.2500
     23 N23       -12.1604    2.2555   61.2240 N.1     1  ZINC000543020509   -0.3800
     24 C24       -10.1466   -0.4582   59.6601 C.2     1  ZINC000543020509    0.0700
     25 C25        -9.8827   -0.2340   58.3533 C.2     1  ZINC000543020509   -0.2400
     26 C26        -6.8140    1.7318   54.6460 C.ar    1  ZINC000543020509   -0.1800
     27 H27        -7.1780   -0.2653   52.1763 H       1  ZINC000543020509    0.0600
     28 H28        -8.3487    0.8409   52.9339 H       1  ZINC000543020509    0.0700
     29 H29        -8.1483    0.8323   51.1652 H       1  ZINC000543020509    0.0700
     30 H30        -6.3391    1.7546   50.1507 H       1  ZINC000543020509    0.0800
     31 H31        -6.0952    3.3280   50.9463 H       1  ZINC000543020509    0.0600
     32 H32        -4.8590    2.0557   51.0926 H       1  ZINC000543020509    0.0600
     33 H33        -4.8217    3.6785   52.7291 H       1  ZINC000543020509    0.1400
     34 H34        -4.2257    4.5118   54.9661 H       1  ZINC000543020509    0.1700
     35 H35        -8.7780    1.1924   56.2728 H       1  ZINC000543020509    0.4300
     36 H36        -7.4674   -0.7655   61.9413 H       1  ZINC000543020509    0.1500
     37 H37        -7.3822   -0.6387   64.3939 H       1  ZINC000543020509    0.1500
     38 H38       -10.9511    1.6967   64.4332 H       1  ZINC000543020509    0.1500
     39 H39       -10.8921   -1.1341   60.0523 H       1  ZINC000543020509    0.1900
     40 H40       -10.3781   -0.7021   57.5156 H       1  ZINC000543020509    0.1800
     41 H41        -7.5498    0.9430   54.5915 H       1  ZINC000543020509    0.1500
@<TRIPOS>BOND
     1     1     2    1
     2     1    27    1
     3     1    28    1
     4     1    29    1
     5     2     3    1
     6     2     4    1
     7     3    30    1
     8     3    31    1
     9     3    32    1
    10     4    26   ar
    11     4     5   ar
    12     5     6   ar
    13     5    33    1
    14     6     7   ar
    15     6    34    1
    16     7     8   ar
    17     8     9    1
    18     8    26   ar
    19     9    10    2
    20     9    11   am
    21    11    12    1
    22    11    35    1
    23    12    25    1
    24    12    13    2
    25    13    14    1
    26    14    15    1
    27    14    24    1
    28    15    21   ar
    29    15    16   ar
    30    16    17   ar
    31    16    36    1
    32    17    18   ar
    33    17    37    1
    34    18    19    1
    35    18    20   ar
    36    20    21   ar
    37    20    38    1
    38    21    22    1
    39    22    23    3
    40    24    25    2
    41    24    39    1
    42    25    40    1
    43    26    41    1
@<TRIPOS>SUBSTRUCTURE
     1 ZINC000543020509        1 TEMP              0 ****  ****    0 ROOT


##########                                Name:    ZINC000518242403
##########                DOCK_Rotatable_Bonds:                   6
##########                         Heavy_Atoms:                  27
##########                    Molecular_Weight:             370.405
##########                DOCK_Rotatable_Bonds:                   6
##########                       Formal_Charge:          -0.0200004
##########                     HBond_Acceptors:                   7
##########                        HBond_Donors:                   1
##########                         Heavy_Atoms:                  27
##########                          Grid_Score:          -28.666964
##########                     Grid_vdw_energy:          -28.553175
##########                      Grid_es_energy:           -0.113789
##########           Internal_energy_repulsive:           13.450141

@<TRIPOS>MOLECULE
ZINC000518242403
 49 52 1 0 0
SMALL
USER_CHARGES


@<TRIPOS>ATOM
      1 C1         -8.6769   -0.9125   60.1931 C.3     1  ZINC000518242403   -0.1800
      2 C2         -8.8044    0.5969   59.9777 C.3     1  ZINC000518242403    0.1000
      3 N3         -9.5405    0.8526   58.7372 N.am    1  ZINC000518242403   -0.6200
      4 C4        -10.9363    1.2942   58.7914 C.3     1  ZINC000518242403    0.1500
      5 C5        -11.8371    0.0995   59.1112 C.3     1  ZINC000518242403    0.0300
      6 H6        -11.6215   -0.2648   60.1157 H       1  ZINC000518242403    0.0900
      7 C7        -13.3095    0.5223   59.0191 C.3     1  ZINC000518242403    0.0300
      8 O8        -14.1228   -0.6195   59.3098 O.3     1  ZINC000518242403   -0.3000
      9 C9        -13.7859   -1.7839   58.6908 C.ar    1  ZINC000518242403    0.0500
     10 C10       -14.7105   -2.8155   58.6313 C.ar    1  ZINC000518242403   -0.1100
     11 C11       -14.3816   -4.0052   58.0088 C.ar    1  ZINC000518242403   -0.1200
     12 C12       -13.1310   -4.1697   57.4439 C.ar    1  ZINC000518242403   -0.1200
     13 C13       -12.2051   -3.1446   57.4983 C.ar    1  ZINC000518242403   -0.1100
     14 C14       -12.5288   -1.9483   58.1203 C.ar    1  ZINC000518242403    0.0500
     15 O15       -11.6092   -0.9455   58.1594 O.3     1  ZINC000518242403   -0.3000
     16 C16        -8.9335    0.6818   57.5460 C.2     1  ZINC000518242403    0.7100
     17 O17        -7.7754    0.3139   57.5010 O.2     1  ZINC000518242403   -0.5700
     18 N18        -9.6100    0.9187   56.4048 N.am    1  ZINC000518242403   -0.6800
     19 C19        -8.9789    0.7411   55.1663 C.ar    1  ZINC000518242403    0.1700
     20 C20        -7.8881    1.5281   54.8240 C.ar    1  ZINC000518242403   -0.1000
     21 C21        -7.2644    1.3519   53.6000 C.ar    1  ZINC000518242403    0.0500
     22 C22        -7.7338    0.3846   52.7146 C.ar    1  ZINC000518242403    0.0200
     23 C23        -8.8234   -0.3984   53.0599 C.ar    1  ZINC000518242403   -0.0800
     24 C24        -9.4412   -0.2259   54.2838 C.ar    1  ZINC000518242403   -0.1000
     25 C25       -10.6262   -1.0795   54.6558 C.3     1  ZINC000518242403   -0.1100
     26 O26        -6.9573    0.4085   51.5910 O.3     1  ZINC000518242403   -0.3100
     27 C27        -6.2676    1.6719   51.6275 C.3     1  ZINC000518242403    0.2100
     28 O28        -6.1947    1.9814   53.0318 O.3     1  ZINC000518242403   -0.3100
     29 H29        -9.6707   -1.3549   60.2625 H       1  ZINC000518242403    0.0600
     30 H30        -8.1399   -1.3552   59.3541 H       1  ZINC000518242403    0.0600
     31 H31        -8.1293   -1.1029   61.1161 H       1  ZINC000518242403    0.0700
     32 H32        -9.3414    1.0394   60.8167 H       1  ZINC000518242403    0.1000
     33 H33        -7.8106    1.0392   59.9084 H       1  ZINC000518242403    0.0700
     34 H34       -11.0480    2.0514   59.5674 H       1  ZINC000518242403    0.1100
     35 H35       -11.2214    1.7165   57.8278 H       1  ZINC000518242403    0.0900
     36 H36       -13.5114    1.3115   59.7434 H       1  ZINC000518242403    0.1300
     37 H37       -13.5265    0.8816   58.0131 H       1  ZINC000518242403    0.0800
     38 H38       -15.6884   -2.6895   59.0721 H       1  ZINC000518242403    0.1300
     39 H39       -15.1033   -4.8073   57.9634 H       1  ZINC000518242403    0.1300
     40 H40       -12.8766   -5.1007   56.9594 H       1  ZINC000518242403    0.1300
     41 H41       -11.2285   -3.2757   57.0563 H       1  ZINC000518242403    0.1300
     42 H42       -10.5339    1.2122   56.4407 H       1  ZINC000518242403    0.4100
     43 H43        -7.5260    2.2779   55.5118 H       1  ZINC000518242403    0.1500
     44 H44        -9.1873   -1.1485   52.3734 H       1  ZINC000518242403    0.1400
     45 H45       -10.2802   -1.9805   55.1624 H       1  ZINC000518242403    0.0800
     46 H46       -11.2835   -0.5188   55.3204 H       1  ZINC000518242403    0.0700
     47 H47       -11.1719   -1.3565   53.7539 H       1  ZINC000518242403    0.0800
     48 H48        -5.2679    1.5749   51.2043 H       1  ZINC000518242403    0.1300
     49 H49        -6.8371    2.4346   51.0963 H       1  ZINC000518242403    0.0900
@<TRIPOS>BOND
     1     1     2    1
     2     1    29    1
     3     1    30    1
     4     1    31    1
     5     2     3    1
     6     2    32    1
     7     2    33    1
     8     3     4    1
     9     3    16   am
    10     4     5    1
    11     4    34    1
    12     4    35    1
    13     5     6    1
    14     5    15    1
    15     5     7    1
    16     7     8    1
    17     7    36    1
    18     7    37    1
    19     8     9    1
    20     9    14   ar
    21     9    10   ar
    22    10    11   ar
    23    10    38    1
    24    11    12   ar
    25    11    39    1
    26    12    13   ar
    27    12    40    1
    28    13    14   ar
    29    13    41    1
    30    14    15    1
    31    16    17    2
    32    16    18   am
    33    18    19    1
    34    18    42    1
    35    19    24   ar
    36    19    20   ar
    37    20    21   ar
    38    20    43    1
    39    21    28    1
    40    21    22   ar
    41    22    23   ar
    42    22    26    1
    43    23    24   ar
    44    23    44    1
    45    24    25    1
    46    25    45    1
    47    25    46    1
    48    25    47    1
    49    26    27    1
    50    27    28    1
    51    27    48    1
    52    27    49    1
@<TRIPOS>SUBSTRUCTURE
     1 ZINC000518242403        1 TEMP              0 ****  ****    0 ROOT


##########                                Name:    ZINC001139743874
##########                DOCK_Rotatable_Bonds:                   5
##########                         Heavy_Atoms:                  28
##########                    Molecular_Weight:             382.506
##########                DOCK_Rotatable_Bonds:                   5
##########                       Formal_Charge:           0.0199992
##########                     HBond_Acceptors:                   6
##########                        HBond_Donors:                   0
##########                         Heavy_Atoms:                  28
##########                          Grid_Score:          -28.656290
##########                     Grid_vdw_energy:          -28.892397
##########                      Grid_es_energy:            0.236106
##########           Internal_energy_repulsive:           31.531343

@<TRIPOS>MOLECULE
ZINC001139743874
 58 61 1 0 0
SMALL
USER_CHARGES


@<TRIPOS>ATOM
      1 C1        -12.4839   -2.3959   57.3285 C.3     1  ZINC001139743874   -0.1800
      2 C2        -11.9849   -1.3266   58.3025 C.3     1  ZINC001139743874    0.1400
      3 C3        -12.7996   -0.0453   58.1145 C.3     1  ZINC001139743874   -0.1800
      4 C4        -12.1482   -1.8288   59.7385 C.3     1  ZINC001139743874   -0.1400
      5 O5        -10.5832   -1.0514   58.0424 O.3     1  ZINC001139743874   -0.3600
      6 C6        -10.2862   -0.4340   56.8834 C.2     1  ZINC001139743874    0.6500
      7 O7        -11.1039   -0.4023   55.9851 O.2     1  ZINC001139743874   -0.5700
      8 N8         -9.0821    0.1487   56.7194 N.am    1  ZINC001139743874   -0.5900
      9 C9         -8.1090    0.1208   57.7649 C.3     1  ZINC001139743874    0.1000
     10 C10        -8.2216    1.2553   58.8228 C.3     1  ZINC001139743874   -0.1300
     11 C11        -8.5725    2.5921   58.1076 C.3     1  ZINC001139743874   -0.0900
     12 C12        -7.8605    2.7270   56.8018 C.3     1  ZINC001139743874   -0.0800
     13 C13        -7.1817    4.0781   56.5473 C.3     1  ZINC001139743874    0.0100
     14 N14        -5.9609    3.4502   57.1024 N.3     1  ZINC001139743874   -0.4700
     15 C15        -4.7779    3.8061   56.3075 C.3     1  ZINC001139743874    0.0600
     16 C16        -3.5366    3.3149   57.0067 C.ar    1  ZINC001139743874   -0.1200
     17 C17        -2.4671    2.8208   56.2624 C.ar    1  ZINC001139743874    0.1500
     18 N18        -1.3722    2.3855   56.8375 N.ar    1  ZINC001139743874   -0.4600
     19 C19        -1.2345    2.3975   58.1653 C.ar    1  ZINC001139743874    0.0800
     20 C20        -0.0560    1.9293   58.7805 C.ar    1  ZINC001139743874   -0.0400
     21 C21         0.0210    1.9693   60.1427 C.ar    1  ZINC001139743874   -0.1600
     22 C22        -1.0489    2.4634   60.8872 C.ar    1  ZINC001139743874    0.1300
     23 N23        -2.1438    2.8982   60.3123 N.ar    1  ZINC001139743874   -0.4700
     24 C24        -2.2815    2.8864   58.9842 C.ar    1  ZINC001139743874    0.0800
     25 C25        -3.4575    3.3593   58.3690 C.ar    1  ZINC001139743874   -0.0400
     26 C26        -6.4607    2.1049   56.7371 C.3     1  ZINC001139743874    0.0000
     27 C27        -8.7843    2.2810   55.6642 C.3     1  ZINC001139743874   -0.1300
     28 C28        -8.7322    0.8342   55.4353 C.3     1  ZINC001139743874    0.1400
     29 H29       -12.3676   -2.0382   56.3054 H       1  ZINC001139743874    0.0900
     30 H30       -11.9035   -3.3087   57.4625 H       1  ZINC001139743874    0.0600
     31 H31       -13.5362   -2.6025   57.5237 H       1  ZINC001139743874    0.0700
     32 H32       -13.8519   -0.2520   58.3097 H       1  ZINC001139743874    0.0700
     33 H33       -12.4442    0.7164   58.8084 H       1  ZINC001139743874    0.0600
     34 H34       -12.6833    0.3124   57.0914 H       1  ZINC001139743874    0.0900
     35 H35       -11.5677   -2.7416   59.8724 H       1  ZINC001139743874    0.0700
     36 H36       -11.7927   -1.0670   60.4323 H       1  ZINC001139743874    0.0700
     37 H37       -13.2005   -2.0354   59.9337 H       1  ZINC001139743874    0.0800
     38 H38        -8.1902   -0.8359   58.2809 H       1  ZINC001139743874    0.0700
     39 H39        -7.1194    0.1747   57.3111 H       1  ZINC001139743874    0.0900
     40 H40        -9.0058    1.0088   59.5387 H       1  ZINC001139743874    0.0700
     41 H41        -7.2709    1.3609   59.3456 H       1  ZINC001139743874    0.0800
     42 H42        -9.6475    2.6287   57.9312 H       1  ZINC001139743874    0.0600
     43 H43        -8.2914    3.4244   58.7529 H       1  ZINC001139743874    0.0700
     44 H44        -7.1016    4.3383   55.4919 H       1  ZINC001139743874    0.0700
     45 H45        -7.5756    4.8902   57.1586 H       1  ZINC001139743874    0.0900
     46 H46        -4.8484    3.3423   55.3236 H       1  ZINC001139743874    0.0600
     47 H47        -4.7276    4.8892   56.1959 H       1  ZINC001139743874    0.0900
     48 H48        -2.5421    2.7956   55.1853 H       1  ZINC001139743874    0.1700
     49 H49         0.7641    1.5488   58.1899 H       1  ZINC001139743874    0.1500
     50 H50         0.9108    1.6178   60.6438 H       1  ZINC001139743874    0.1500
     51 H51        -0.9741    2.4883   61.9644 H       1  ZINC001139743874    0.1700
     52 H52        -4.2762    3.7431   58.9596 H       1  ZINC001139743874    0.1400
     53 H53        -6.2807    1.3468   57.4994 H       1  ZINC001139743874    0.1000
     54 H54        -6.1681    1.7834   55.7376 H       1  ZINC001139743874    0.0700
     55 H55        -9.8079    2.5644   55.9093 H       1  ZINC001139743874    0.0700
     56 H56        -8.4883    2.7926   54.7483 H       1  ZINC001139743874    0.0800
     57 H57        -7.7280    0.5478   55.1225 H       1  ZINC001139743874    0.0800
     58 H58        -9.4505    0.5584   54.6633 H       1  ZINC001139743874    0.1000
@<TRIPOS>BOND
     1     1     2    1
     2     1    29    1
     3     1    30    1
     4     1    31    1
     5     2     3    1
     6     2     4    1
     7     2     5    1
     8     3    32    1
     9     3    33    1
    10     3    34    1
    11     4    35    1
    12     4    36    1
    13     4    37    1
    14     5     6    1
    15     6     7    2
    16     6     8   am
    17     8    28    1
    18     8     9    1
    19     9    10    1
    20     9    38    1
    21     9    39    1
    22    10    11    1
    23    10    40    1
    24    10    41    1
    25    11    12    1
    26    11    42    1
    27    11    43    1
    28    12    26    1
    29    12    13    1
    30    12    27    1
    31    13    14    1
    32    13    44    1
    33    13    45    1
    34    14    15    1
    35    14    26    1
    36    15    16    1
    37    15    46    1
    38    15    47    1
    39    16    25   ar
    40    16    17   ar
    41    17    18   ar
    42    17    48    1
    43    18    19   ar
    44    19    24   ar
    45    19    20   ar
    46    20    21   ar
    47    20    49    1
    48    21    22   ar
    49    21    50    1
    50    22    23   ar
    51    22    51    1
    52    23    24   ar
    53    24    25   ar
    54    25    52    1
    55    26    53    1
    56    26    54    1
    57    27    28    1
    58    27    55    1
    59    27    56    1
    60    28    57    1
    61    28    58    1
@<TRIPOS>SUBSTRUCTURE
     1 ZINC001139743874        1 TEMP              0 ****  ****    0 ROOT


##########                                Name:    ZINC000655982608
##########                DOCK_Rotatable_Bonds:                   5
##########                         Heavy_Atoms:                  29
##########                    Molecular_Weight:             388.469
##########                DOCK_Rotatable_Bonds:                   5
##########                       Formal_Charge:          -0.0200006
##########                     HBond_Acceptors:                   6
##########                        HBond_Donors:                   0
##########                         Heavy_Atoms:                  29
##########                          Grid_Score:          -28.614948
##########                     Grid_vdw_energy:          -29.184610
##########                      Grid_es_energy:            0.569662
##########           Internal_energy_repulsive:           50.533756

@<TRIPOS>MOLECULE
ZINC000655982608
 53 57 1 0 0
SMALL
USER_CHARGES


@<TRIPOS>ATOM
      1 C1         -7.5379    3.1664   51.8631 C.3     1  ZINC000655982608   -0.1900
      2 C2         -6.3488    2.8817   52.7830 C.3     1  ZINC000655982608    0.0800
      3 H3         -5.8168    1.9996   52.4266 H       1  ZINC000655982608    0.1000
      4 C4         -5.4026    4.0839   52.7801 C.3     1  ZINC000655982608   -0.0300
      5 C5         -4.1699    3.7549   53.5823 C.2     1  ZINC000655982608    0.2000
      6 N6         -3.9436    4.0759   54.8333 N.2     1  ZINC000655982608   -0.4800
      7 C7         -2.7280    3.5774   55.1208 C.2     1  ZINC000655982608    0.1700
      8 C8         -2.0112    3.6811   56.4423 C.3     1  ZINC000655982608   -0.0100
      9 H9         -2.1672    4.6614   56.8926 H       1  ZINC000655982608    0.1300
     10 C10        -2.4558    2.5539   57.4029 C.3     1  ZINC000655982608   -0.1400
     11 C11        -1.1917    2.1779   58.1441 C.2     1  ZINC000655982608    0.5200
     12 O12        -1.1542    1.5366   59.1728 O.2     1  ZINC000655982608   -0.5000
     13 N13        -0.1160    2.6575   57.4961 N.am    1  ZINC000655982608   -0.5600
     14 C14         1.2047    2.4894   57.9267 C.ar    1  ZINC000655982608    0.1600
     15 C15         2.2509    3.0277   57.1888 C.ar    1  ZINC000655982608   -0.1600
     16 C16         3.5535    2.8600   57.6164 C.ar    1  ZINC000655982608   -0.0900
     17 C17         3.8164    2.1566   58.7775 C.ar    1  ZINC000655982608   -0.1400
     18 C18         2.7770    1.6190   59.5142 C.ar    1  ZINC000655982608   -0.0900
     19 C19         1.4718    1.7889   59.0955 C.ar    1  ZINC000655982608   -0.1600
     20 C20        -0.5046    3.3810   56.2792 C.3     1  ZINC000655982608    0.1100
     21 N21        -2.2853    2.9896   54.0498 N.2     1  ZINC000655982608   -0.3700
     22 O22        -3.1011    3.0752   53.1561 O.3     1  ZINC000655982608    0.0900
     23 N23        -6.8329    2.6427   54.1491 N.3     1  ZINC000655982608   -0.4700
     24 C24        -7.4160    3.8728   54.7276 C.3     1  ZINC000655982608    0.0300
     25 C25        -8.5048    3.3179   55.6747 C.3     1  ZINC000655982608   -0.0800
     26 C26        -8.8381    1.9756   55.0547 C.ar    1  ZINC000655982608   -0.1400
     27 C27        -9.9065    1.1236   55.2375 C.ar    1  ZINC000655982608   -0.0800
     28 C28        -9.9756   -0.0635   54.5302 C.ar    1  ZINC000655982608   -0.1400
     29 C29        -8.9715   -0.3940   53.6392 C.ar    1  ZINC000655982608   -0.0900
     30 C30        -7.8991    0.4540   53.4543 C.ar    1  ZINC000655982608   -0.1400
     31 C31        -7.8206    1.6501   54.1652 C.ar    1  ZINC000655982608    0.1000
     32 H32        -7.1915    3.2334   50.8319 H       1  ZINC000655982608    0.0700
     33 H33        -8.2658    2.3598   51.9501 H       1  ZINC000655982608    0.0700
     34 H34        -8.0033    4.1087   52.1521 H       1  ZINC000655982608    0.0700
     35 H35        -5.1169    4.3191   51.7549 H       1  ZINC000655982608    0.1200
     36 H36        -5.9057    4.9433   53.2233 H       1  ZINC000655982608    0.1100
     37 H37        -3.2108    2.9209   58.0982 H       1  ZINC000655982608    0.1200
     38 H38        -2.8362    1.7012   56.8404 H       1  ZINC000655982608    0.1200
     39 H39         2.0462    3.5765   56.2815 H       1  ZINC000655982608    0.1200
     40 H40         4.3675    3.2784   57.0431 H       1  ZINC000655982608    0.1300
     41 H41         4.8359    2.0267   59.1096 H       1  ZINC000655982608    0.1200
     42 H42         2.9857    1.0697   60.4203 H       1  ZINC000655982608    0.1300
     43 H43         0.6604    1.3687   59.6713 H       1  ZINC000655982608    0.1500
     44 H44        -0.3376    2.7581   55.4005 H       1  ZINC000655982608    0.0900
     45 H45         0.0593    4.3101   56.1965 H       1  ZINC000655982608    0.1000
     46 H46        -6.6650    4.4308   55.2869 H       1  ZINC000655982608    0.1000
     47 H47        -7.8602    4.4932   53.9494 H       1  ZINC000655982608    0.0700
     48 H48        -8.1109    3.1903   56.6830 H       1  ZINC000655982608    0.0900
     49 H49        -9.3794    3.9683   55.6803 H       1  ZINC000655982608    0.0800
     50 H50       -10.6902    1.3830   55.9338 H       1  ZINC000655982608    0.1200
     51 H51       -10.8124   -0.7310   54.6742 H       1  ZINC000655982608    0.1200
     52 H52        -9.0266   -1.3199   53.0860 H       1  ZINC000655982608    0.1300
     53 H53        -7.1177    0.1899   52.7571 H       1  ZINC000655982608    0.1200
@<TRIPOS>BOND
     1     1     2    1
     2     1    32    1
     3     1    33    1
     4     1    34    1
     5     2     3    1
     6     2     4    1
     7     2    23    1
     8     4     5    1
     9     4    35    1
    10     4    36    1
    11     5    22    1
    12     5     6    2
    13     6     7    1
    14     7     8    1
    15     7    21    2
    16     8     9    1
    17     8    20    1
    18     8    10    1
    19    10    11    1
    20    10    37    1
    21    10    38    1
    22    11    12    2
    23    11    13   am
    24    13    14    1
    25    13    20    1
    26    14    19   ar
    27    14    15   ar
    28    15    16   ar
    29    15    39    1
    30    16    17   ar
    31    16    40    1
    32    17    18   ar
    33    17    41    1
    34    18    19   ar
    35    18    42    1
    36    19    43    1
    37    20    44    1
    38    20    45    1
    39    21    22    1
    40    23    31    1
    41    23    24    1
    42    24    25    1
    43    24    46    1
    44    24    47    1
    45    25    26    1
    46    25    48    1
    47    25    49    1
    48    26    31   ar
    49    26    27   ar
    50    27    28   ar
    51    27    50    1
    52    28    29   ar
    53    28    51    1
    54    29    30   ar
    55    29    52    1
    56    30    31   ar
    57    30    53    1
@<TRIPOS>SUBSTRUCTURE
     1 ZINC000655982608        1 TEMP              0 ****  ****    0 ROOT


##########                                Name:    ZINC001282645012
##########                DOCK_Rotatable_Bonds:                   9
##########                         Heavy_Atoms:                  27
##########                    Molecular_Weight:             372.511
##########                DOCK_Rotatable_Bonds:                   9
##########                       Formal_Charge:          -0.0200004
##########                     HBond_Acceptors:                   6
##########                        HBond_Donors:                   1
##########                         Heavy_Atoms:                  27
##########                          Grid_Score:          -28.613199
##########                     Grid_vdw_energy:          -26.816189
##########                      Grid_es_energy:           -1.797010
##########           Internal_energy_repulsive:           52.222099

@<TRIPOS>MOLECULE
ZINC001282645012
 59 61 1 0 0
SMALL
USER_CHARGES


@<TRIPOS>ATOM
      1 C1         -8.8385    0.2238   63.4858 C.2     1  ZINC001282645012   -0.1900
      2 C2         -9.2560    0.7148   62.3453 C.2     1  ZINC001282645012   -0.1300
      3 C3        -10.2050    1.8855   62.3312 C.3     1  ZINC001282645012   -0.0500
      4 C4        -11.3958    1.5877   63.2446 C.3     1  ZINC001282645012   -0.1500
      5 C5         -9.4792    3.1363   62.8309 C.3     1  ZINC001282645012   -0.1400
      6 C6        -10.6958    2.1174   60.9254 C.2     1  ZINC001282645012    0.5500
      7 O7        -11.8863    2.1577   60.6977 O.2     1  ZINC001282645012   -0.5300
      8 N8         -9.8117    2.2801   59.9212 N.am    1  ZINC001282645012   -0.6300
      9 C9         -8.3093    2.2759   59.9246 C.3     1  ZINC001282645012    0.1200
     10 H10        -7.8365    2.1217   60.8945 H       1  ZINC001282645012    0.1300
     11 C11        -8.0052    3.6414   59.2379 C.3     1  ZINC001282645012   -0.1300
     12 C12        -9.1740    3.8088   58.2359 C.3     1  ZINC001282645012   -0.1300
     13 C13       -10.0251    2.5150   58.4527 C.3     1  ZINC001282645012    0.1200
     14 H14       -11.0638    2.5753   58.1275 H       1  ZINC001282645012    0.1200
     15 C15        -9.1864    1.3668   57.8149 C.3     1  ZINC001282645012    0.1300
     16 H16        -9.7742    0.4510   57.7523 H       1  ZINC001282645012    0.1000
     17 N17        -8.7004    1.7577   56.4893 N.am    1  ZINC001282645012   -0.7100
     18 C18        -9.0815    1.0622   55.3996 C.2     1  ZINC001282645012    0.5100
     19 O19        -9.8256    0.1116   55.5166 O.2     1  ZINC001282645012   -0.5100
     20 C20        -8.5829    1.4654   54.0358 C.3     1  ZINC001282645012    0.1200
     21 H21        -9.2527    2.2129   53.6105 H       1  ZINC001282645012    0.1300
     22 C22        -7.1759    2.0533   54.1604 C.3     1  ZINC001282645012   -0.1100
     23 C23        -6.7924    2.7407   52.8484 C.3     1  ZINC001282645012   -0.1000
     24 C24        -7.7891    3.8624   52.5499 C.3     1  ZINC001282645012   -0.1500
     25 C25        -5.3854    3.3285   52.9729 C.3     1  ZINC001282645012   -0.1500
     26 N26        -8.5456    0.2899   53.1623 N.pl3   1  ZINC001282645012   -0.4500
     27 C27        -7.4523   -0.1906   52.4934 C.2     1  ZINC001282645012   -0.0600
     28 C28        -7.8591   -1.2793   51.8133 C.2     1  ZINC001282645012   -0.0200
     29 N29        -9.1651   -1.4587   52.0600 N.2     1  ZINC001282645012   -0.4900
     30 C30        -9.5820   -0.5254   52.8713 C.2     1  ZINC001282645012    0.1900
     31 C31        -8.0112    1.1868   58.8505 C.3     1  ZINC001282645012   -0.1400
     32 H32        -9.1743    0.6581   64.4160 H       1  ZINC001282645012    0.1000
     33 H33        -8.1620   -0.6179   63.4960 H       1  ZINC001282645012    0.1000
     34 H34        -8.9203    0.2806   61.4152 H       1  ZINC001282645012    0.1100
     35 H35       -11.0408    1.4200   64.2614 H       1  ZINC001282645012    0.0700
     36 H36       -12.0821    2.4345   63.2344 H       1  ZINC001282645012    0.0700
     37 H37       -11.9128    0.6967   62.8886 H       1  ZINC001282645012    0.0600
     38 H38        -8.6308    3.3484   62.1802 H       1  ZINC001282645012    0.0600
     39 H39       -10.1655    3.9830   62.8208 H       1  ZINC001282645012    0.0700
     40 H40        -9.1241    2.9685   63.8476 H       1  ZINC001282645012    0.0700
     41 H41        -8.0087    4.4488   59.9702 H       1  ZINC001282645012    0.0800
     42 H42        -7.0513    3.6027   58.7119 H       1  ZINC001282645012    0.0800
     43 H43        -9.7570    4.6991   58.4714 H       1  ZINC001282645012    0.0700
     44 H44        -8.7996    3.8531   57.2132 H       1  ZINC001282645012    0.0800
     45 H45        -8.1043    2.5173   56.3959 H       1  ZINC001282645012    0.4000
     46 H46        -7.1569    2.7815   54.9712 H       1  ZINC001282645012    0.0900
     47 H47        -6.4658    1.2541   54.3730 H       1  ZINC001282645012    0.0800
     48 H48        -6.8115    2.0124   52.0376 H       1  ZINC001282645012    0.0700
     49 H49        -7.7702    4.5906   53.3608 H       1  ZINC001282645012    0.0600
     50 H50        -7.5160    4.3520   51.6152 H       1  ZINC001282645012    0.0600
     51 H51        -8.7916    3.4436   52.4613 H       1  ZINC001282645012    0.0500
     52 H52        -4.6642    2.5210   53.1003 H       1  ZINC001282645012    0.0600
     53 H53        -5.1454    3.8910   52.0707 H       1  ZINC001282645012    0.0600
     54 H54        -5.3440    3.9921   53.8366 H       1  ZINC001282645012    0.0600
     55 H55        -6.4551    0.2240   52.5081 H       1  ZINC001282645012    0.1700
     56 H56        -7.2419   -1.8994   51.1800 H       1  ZINC001282645012    0.1700
     57 H57       -10.5903   -0.4188   53.2431 H       1  ZINC001282645012    0.2000
     58 H58        -7.0499    1.3928   58.3800 H       1  ZINC001282645012    0.0900
     59 H59        -8.0245    0.1833   59.2757 H       1  ZINC001282645012    0.0900
@<TRIPOS>BOND
     1     1     2    2
     2     1    32    1
     3     1    33    1
     4     2     3    1
     5     2    34    1
     6     3     4    1
     7     3     5    1
     8     3     6    1
     9     4    35    1
    10     4    36    1
    11     4    37    1
    12     5    38    1
    13     5    39    1
    14     5    40    1
    15     6     7    2
    16     6     8   am
    17     8    13    1
    18     8     9    1
    19     9    10    1
    20     9    31    1
    21     9    11    1
    22    11    12    1
    23    11    41    1
    24    11    42    1
    25    12    13    1
    26    12    43    1
    27    12    44    1
    28    13    14    1
    29    13    15    1
    30    15    16    1
    31    15    17    1
    32    15    31    1
    33    17    18   am
    34    17    45    1
    35    18    19    2
    36    18    20    1
    37    20    21    1
    38    20    22    1
    39    20    26    1
    40    22    23    1
    41    22    46    1
    42    22    47    1
    43    23    24    1
    44    23    25    1
    45    23    48    1
    46    24    49    1
    47    24    50    1
    48    24    51    1
    49    25    52    1
    50    25    53    1
    51    25    54    1
    52    26    30    1
    53    26    27    1
    54    27    28    2
    55    27    55    1
    56    28    29    1
    57    28    56    1
    58    29    30    2
    59    30    57    1
    60    31    58    1
    61    31    59    1
@<TRIPOS>SUBSTRUCTURE
     1 ZINC001282645012        1 TEMP              0 ****  ****    0 ROOT


##########                                Name:    ZINC000446721380
##########                DOCK_Rotatable_Bonds:                   8
##########                         Heavy_Atoms:                  26
##########                    Molecular_Weight:             419.318
##########                DOCK_Rotatable_Bonds:                   8
##########                       Formal_Charge:           0.0199992
##########                     HBond_Acceptors:                   5
##########                        HBond_Donors:                   2
##########                         Heavy_Atoms:                  26
##########                          Grid_Score:          -28.613171
##########                     Grid_vdw_energy:          -27.967846
##########                      Grid_es_energy:           -0.645326
##########           Internal_energy_repulsive:           14.686769

@<TRIPOS>MOLECULE
ZINC000446721380
 49 51 1 0 0
SMALL
USER_CHARGES


@<TRIPOS>ATOM
      1 C1        -14.9735   -3.2964   60.0132 C.3     1  ZINC000446721380   -0.1200
      2 C2        -13.8720   -2.9787   59.0350 C.ar    1  ZINC000446721380   -0.0300
      3 C3        -13.8616   -3.5763   57.7885 C.ar    1  ZINC000446721380   -0.1600
      4 C4        -12.8522   -3.2869   56.8887 C.ar    1  ZINC000446721380   -0.0500
      5 C5        -11.8515   -2.3995   57.2335 C.ar    1  ZINC000446721380   -0.1500
      6 C6        -10.7521   -2.0842   56.2523 C.3     1  ZINC000446721380    0.1900
      7 N7        -10.7232   -0.6418   55.9982 N.am    1  ZINC000446721380   -0.7300
      8 C8         -9.9309   -0.1441   55.0281 C.2     1  ZINC000446721380    0.7100
      9 O9         -9.2413   -0.8925   54.3627 O.2     1  ZINC000446721380   -0.5700
     10 N10        -9.9032    1.1831   54.7954 N.am    1  ZINC000446721380   -0.6900
     11 C11        -9.0803    1.7000   53.7878 C.ar    1  ZINC000446721380    0.2000
     12 C12        -7.7506    1.3099   53.7073 C.ar    1  ZINC000446721380   -0.1200
     13 C13        -6.9410    1.8214   52.7114 C.ar    1  ZINC000446721380   -0.0800
     14 C14        -7.4535    2.7210   51.7953 C.ar    1  ZINC000446721380   -0.1300
     15 C15        -8.7778    3.1124   51.8724 C.ar    1  ZINC000446721380   -0.0700
     16 C16        -9.5943    2.6004   52.8624 C.ar    1  ZINC000446721380   -0.1300
     17 Br17      -11.4050    3.1353   52.9670 Br      1  ZINC000446721380   -0.0500
     18 C18       -11.8597   -1.7983   58.4841 C.ar    1  ZINC000446721380    0.1500
     19 O19       -10.8764   -0.9245   58.8256 O.3     1  ZINC000446721380   -0.3100
     20 C20        -9.7040   -1.4719   59.4321 C.3     1  ZINC000446721380    0.0700
     21 C21        -8.9191   -0.3555   60.1239 C.3     1  ZINC000446721380   -0.1200
     22 H22        -7.8646   -0.6217   60.1984 H       1  ZINC000446721380    0.1000
     23 C23        -9.5064   -0.0698   61.5275 C.3     1  ZINC000446721380   -0.1500
     24 C24        -9.4409    1.4772   61.5980 C.3     1  ZINC000446721380    0.0500
     25 O25        -9.7567    1.8894   60.2508 O.3     1  ZINC000446721380   -0.3800
     26 C26        -9.0874    0.9737   59.3628 C.3     1  ZINC000446721380    0.0500
     27 C27       -12.8763   -2.0861   59.3827 C.ar    1  ZINC000446721380   -0.2100
     28 H28       -15.7994   -2.5999   59.8691 H       1  ZINC000446721380    0.0800
     29 H29       -15.3240   -4.3151   59.8473 H       1  ZINC000446721380    0.0700
     30 H30       -14.5937   -3.2040   61.0307 H       1  ZINC000446721380    0.0700
     31 H31       -14.6430   -4.2707   57.5171 H       1  ZINC000446721380    0.1300
     32 H32       -12.8462   -3.7553   55.9156 H       1  ZINC000446721380    0.1300
     33 H33        -9.7942   -2.3994   56.6662 H       1  ZINC000446721380    0.0800
     34 H34       -10.9361   -2.6142   55.3178 H       1  ZINC000446721380    0.0800
     35 H35       -11.2743   -0.0448   56.5281 H       1  ZINC000446721380    0.4000
     36 H36       -10.4534    1.7802   55.3261 H       1  ZINC000446721380    0.4100
     37 H37        -7.3491    0.6075   54.4227 H       1  ZINC000446721380    0.1500
     38 H38        -5.9062    1.5184   52.6488 H       1  ZINC000446721380    0.1300
     39 H39        -6.8184    3.1193   51.0178 H       1  ZINC000446721380    0.1300
     40 H40        -9.1750    3.8159   51.1556 H       1  ZINC000446721380    0.1400
     41 H41        -9.9924   -2.2229   60.1677 H       1  ZINC000446721380    0.0700
     42 H42        -9.0807   -1.9338   58.6664 H       1  ZINC000446721380    0.0700
     43 H43       -10.5366   -0.4191   61.5966 H       1  ZINC000446721380    0.0800
     44 H44        -8.8911   -0.5210   62.3059 H       1  ZINC000446721380    0.0900
     45 H45       -10.1808    1.8611   62.3003 H       1  ZINC000446721380    0.1000
     46 H46        -8.4397    1.8068   61.8755 H       1  ZINC000446721380    0.0600
     47 H47        -8.1112    1.3722   59.0865 H       1  ZINC000446721380    0.0600
     48 H48        -9.6916    0.8153   58.4695 H       1  ZINC000446721380    0.0900
     49 H49       -12.8848   -1.6194   60.3567 H       1  ZINC000446721380    0.1300
@<TRIPOS>BOND
     1     1     2    1
     2     1    28    1
     3     1    29    1
     4     1    30    1
     5     2    27   ar
     6     2     3   ar
     7     3     4   ar
     8     3    31    1
     9     4     5   ar
    10     4    32    1
    11     5     6    1
    12     5    18   ar
    13     6     7    1
    14     6    33    1
    15     6    34    1
    16     7     8   am
    17     7    35    1
    18     8     9    2
    19     8    10   am
    20    10    11    1
    21    10    36    1
    22    11    16   ar
    23    11    12   ar
    24    12    13   ar
    25    12    37    1
    26    13    14   ar
    27    13    38    1
    28    14    15   ar
    29    14    39    1
    30    15    16   ar
    31    15    40    1
    32    16    17    1
    33    18    19    1
    34    18    27   ar
    35    19    20    1
    36    20    21    1
    37    20    41    1
    38    20    42    1
    39    21    22    1
    40    21    26    1
    41    21    23    1
    42    23    24    1
    43    23    43    1
    44    23    44    1
    45    24    25    1
    46    24    45    1
    47    24    46    1
    48    25    26    1
    49    26    47    1
    50    26    48    1
    51    27    49    1
@<TRIPOS>SUBSTRUCTURE
     1 ZINC000446721380        1 TEMP              0 ****  ****    0 ROOT


##########                                Name:    ZINC000080099940
##########                DOCK_Rotatable_Bonds:                   4
##########                         Heavy_Atoms:                  26
##########                    Molecular_Weight:             343.388
##########                DOCK_Rotatable_Bonds:                   4
##########                       Formal_Charge:        -3.42727e-07
##########                     HBond_Acceptors:                   6
##########                        HBond_Donors:                   1
##########                         Heavy_Atoms:                  26
##########                          Grid_Score:          -28.607864
##########                     Grid_vdw_energy:          -30.644970
##########                      Grid_es_energy:            2.037106
##########           Internal_energy_repulsive:            3.460311

@<TRIPOS>MOLECULE
ZINC000080099940
 43 46 1 0 0
SMALL
USER_CHARGES


@<TRIPOS>ATOM
      1 C1         -5.6504    2.1622   51.2162 C.3     1  ZINC000080099940   -0.1100
      2 C2         -6.5146    1.7027   52.3622 C.2     1  ZINC000080099940   -0.0700
      3 C3         -6.2548    2.1287   53.6274 C.2     1  ZINC000080099940   -0.0900
      4 C4         -7.0742    1.6881   54.6870 C.2     1  ZINC000080099940    0.2300
      5 N5         -7.0534    1.9362   55.9882 N.2     1  ZINC000080099940   -0.4800
      6 C6         -8.0577    1.2694   56.5789 C.2     1  ZINC000080099940    0.1000
      7 C7         -8.3764    1.2836   58.0280 C.ar    1  ZINC000080099940   -0.0200
      8 C8         -7.9101    2.3200   58.8350 C.ar    1  ZINC000080099940   -0.0800
      9 C9         -8.2077    2.3315   60.1812 C.ar    1  ZINC000080099940   -0.1200
     10 C10        -8.9719    1.3103   60.7337 C.ar    1  ZINC000080099940    0.1500
     11 N11        -9.2720    1.3237   62.0986 N.am    1  ZINC000080099940   -0.6500
     12 C12        -8.6108    0.5065   62.9420 C.2     1  ZINC000080099940    0.5700
     13 O13        -7.7539   -0.2420   62.5159 O.2     1  ZINC000080099940   -0.5000
     14 C14        -8.9295    0.5207   64.3914 C.ar    1  ZINC000080099940    0.1300
     15 C15        -8.3482   -0.4086   65.2546 C.ar    1  ZINC000080099940   -0.1700
     16 C16        -8.6795   -0.3518   66.6011 C.ar    1  ZINC000080099940    0.1600
     17 N17        -9.5274    0.5730   67.0170 N.ar    1  ZINC000080099940   -0.5000
     18 C18       -10.0592    1.4369   66.1738 C.ar    1  ZINC000080099940    0.3200
     19 C19       -11.0208    2.4726   66.6970 C.3     1  ZINC000080099940   -0.0900
     20 N20        -9.7706    1.4239   64.8905 N.ar    1  ZINC000080099940   -0.5000
     21 C21        -9.4382    0.2761   59.9307 C.ar    1  ZINC000080099940   -0.1400
     22 C22        -9.1474    0.2635   58.5830 C.ar    1  ZINC000080099940   -0.0700
     23 C23        -8.7345    0.5780   55.6198 C.2     1  ZINC000080099940   -0.0900
     24 N24        -8.1190    0.8386   54.4273 N.pl3   1  ZINC000080099940   -0.3600
     25 C25        -8.3682    0.4191   53.1522 C.2     1  ZINC000080099940    0.0600
     26 C26        -7.5958    0.8371   52.1275 C.2     1  ZINC000080099940   -0.1400
     27 H27        -6.0144    1.7226   50.2876 H       1  ZINC000080099940    0.0700
     28 H28        -5.6905    3.2490   51.1440 H       1  ZINC000080099940    0.0800
     29 H29        -4.6211    1.8472   51.3884 H       1  ZINC000080099940    0.0800
     30 H30        -5.4285    2.7975   53.8188 H       1  ZINC000080099940    0.1500
     31 H31        -7.3157    3.1133   58.4062 H       1  ZINC000080099940    0.1300
     32 H32        -7.8467    3.1343   60.8068 H       1  ZINC000080099940    0.1400
     33 H33        -9.9561    1.9213   62.4389 H       1  ZINC000080099940    0.4200
     34 H34        -7.6587   -1.1530   64.8845 H       1  ZINC000080099940    0.1600
     35 H35        -8.2502   -1.0543   67.3001 H       1  ZINC000080099940    0.1800
     36 H36       -10.4691    3.3663   66.9887 H       1  ZINC000080099940    0.0900
     37 H37       -11.7395    2.7274   65.9181 H       1  ZINC000080099940    0.0900
     38 H38       -11.5495    2.0732   67.5626 H       1  ZINC000080099940    0.0900
     39 H39       -10.0319   -0.5163   60.3620 H       1  ZINC000080099940    0.1300
     40 H40        -9.5103   -0.5401   57.9594 H       1  ZINC000080099940    0.1400
     41 H41        -9.5949   -0.0567   55.7727 H       1  ZINC000080099940    0.1900
     42 H42        -9.1941   -0.2499   52.9611 H       1  ZINC000080099940    0.1700
     43 H43        -7.8046    0.4977   51.1237 H       1  ZINC000080099940    0.1500
@<TRIPOS>BOND
     1     1     2    1
     2     1    27    1
     3     1    28    1
     4     1    29    1
     5     2    26    1
     6     2     3    2
     7     3     4    1
     8     3    30    1
     9     4    24    1
    10     4     5    2
    11     5     6    1
    12     6     7    1
    13     6    23    2
    14     7    22   ar
    15     7     8   ar
    16     8     9   ar
    17     8    31    1
    18     9    10   ar
    19     9    32    1
    20    10    11    1
    21    10    21   ar
    22    11    12   am
    23    11    33    1
    24    12    13    2
    25    12    14    1
    26    14    20   ar
    27    14    15   ar
    28    15    16   ar
    29    15    34    1
    30    16    17   ar
    31    16    35    1
    32    17    18   ar
    33    18    19    1
    34    18    20   ar
    35    19    36    1
    36    19    37    1
    37    19    38    1
    38    21    22   ar
    39    21    39    1
    40    22    40    1
    41    23    24    1
    42    23    41    1
    43    24    25    1
    44    25    26    2
    45    25    42    1
    46    26    43    1
@<TRIPOS>SUBSTRUCTURE
     1 ZINC000080099940        1 TEMP              0 ****  ****    0 ROOT


##########                                Name:    ZINC000821177065
##########                DOCK_Rotatable_Bonds:                  10
##########                         Heavy_Atoms:                  25
##########                    Molecular_Weight:             341.413
##########                DOCK_Rotatable_Bonds:                  10
##########                       Formal_Charge:          0.00999917
##########                     HBond_Acceptors:                   7
##########                        HBond_Donors:                   3
##########                         Heavy_Atoms:                  25
##########                          Grid_Score:          -28.583935
##########                     Grid_vdw_energy:          -27.427782
##########                      Grid_es_energy:           -1.156153
##########           Internal_energy_repulsive:           27.115774

@<TRIPOS>MOLECULE
ZINC000821177065
 48 51 1 0 0
SMALL
USER_CHARGES


@<TRIPOS>ATOM
      1 O1         -9.0094   -0.0941   57.7095 O.2     1  ZINC000821177065   -0.5600
      2 C2         -9.7381   -0.9500   58.1730 C.2     1  ZINC000821177065    0.7100
      3 N3         -9.7299   -1.1969   59.4979 N.am    1  ZINC000821177065   -0.7300
      4 C4         -8.8386   -0.4381   60.3789 C.3     1  ZINC000821177065    0.1200
      5 C5         -9.6360    0.6563   61.0912 C.3     1  ZINC000821177065    0.1900
      6 O6        -10.9096    0.1396   61.4824 O.3     1  ZINC000821177065   -0.5400
      7 C7         -8.8704    1.1195   62.3322 C.3     1  ZINC000821177065   -0.1500
      8 C8         -9.6450    1.2057   63.6488 C.3     1  ZINC000821177065   -0.1600
      9 C9         -8.6220    0.0882   63.4348 C.3     1  ZINC000821177065   -0.1700
     10 C10        -9.8354    1.8408   60.1435 C.3     1  ZINC000821177065   -0.1800
     11 C11        -9.4532    3.2298   60.6584 C.3     1  ZINC000821177065   -0.1900
     12 C12        -8.5820    2.5367   59.6090 C.3     1  ZINC000821177065   -0.1700
     13 N13       -10.5581   -1.6481   57.3626 N.am    1  ZINC000821177065   -0.6500
     14 C14       -10.5667   -1.3913   55.9844 C.2     1  ZINC000821177065    0.3200
     15 N15        -9.5517   -1.5403   55.1663 N.2     1  ZINC000821177065   -0.3200
     16 N16        -9.9710   -1.1789   53.8796 N.pl3   1  ZINC000821177065   -0.3600
     17 C17        -9.1471   -1.1994   52.6685 C.3     1  ZINC000821177065    0.1900
     18 C18        -8.3516    0.0775   52.5804 C.ar    1  ZINC000821177065    0.1100
     19 C19        -6.9867    0.0189   52.3732 C.ar    1  ZINC000821177065   -0.1500
     20 C20        -6.2641    1.1997   52.2932 C.ar    1  ZINC000821177065   -0.0700
     21 C21        -6.9447    2.4001   52.4253 C.ar    1  ZINC000821177065   -0.1700
     22 C22        -8.3115    2.3802   52.6308 C.ar    1  ZINC000821177065    0.1000
     23 N23        -8.9672    1.2382   52.6966 N.ar    1  ZINC000821177065   -0.4700
     24 C24       -11.2671   -0.8092   53.9506 C.2     1  ZINC000821177065    0.0700
     25 C25       -11.6645   -0.9355   55.2372 C.2     1  ZINC000821177065   -0.2600
     26 H26       -10.3142   -1.8769   59.8682 H       1  ZINC000821177065    0.4000
     27 H27        -8.4014   -1.1088   61.1185 H       1  ZINC000821177065    0.0700
     28 H28        -8.0446    0.0176   59.7873 H       1  ZINC000821177065    0.0800
     29 H29       -11.5564    0.8205   61.7129 H       1  ZINC000821177065    0.3800
     30 H30        -8.0939    1.8637   62.1551 H       1  ZINC000821177065    0.1100
     31 H31        -9.3782    2.0069   64.3381 H       1  ZINC000821177065    0.0900
     32 H32       -10.7000    0.9324   63.6309 H       1  ZINC000821177065    0.1100
     33 H33        -9.0041   -0.9202   63.2761 H       1  ZINC000821177065    0.1000
     34 H34        -7.6824    0.1542   63.9833 H       1  ZINC000821177065    0.0900
     35 H35       -10.6947    1.7698   59.4766 H       1  ZINC000821177065    0.1100
     36 H36       -10.0611    4.0731   60.3306 H       1  ZINC000821177065    0.1000
     37 H37        -9.0596    3.3000   61.6726 H       1  ZINC000821177065    0.1100
     38 H38        -7.6153    2.1507   59.9325 H       1  ZINC000821177065    0.0900
     39 H39        -8.6168    2.9239   58.5906 H       1  ZINC000821177065    0.1000
     40 H40       -11.1423   -2.3281   57.7329 H       1  ZINC000821177065    0.4100
     41 H41        -8.4662   -2.0497   52.7066 H       1  ZINC000821177065    0.1000
     42 H42        -9.7902   -1.2880   51.7929 H       1  ZINC000821177065    0.1200
     43 H43        -6.4889   -0.9345   52.2751 H       1  ZINC000821177065    0.1400
     44 H44        -5.1962    1.1845   52.1321 H       1  ZINC000821177065    0.1400
     45 H45        -6.4139    3.3390   52.3686 H       1  ZINC000821177065    0.1400
     46 H46        -8.8492    3.3111   52.7352 H       1  ZINC000821177065    0.1600
     47 H47       -11.8794   -0.4761   53.1258 H       1  ZINC000821177065    0.1800
     48 H48       -12.6495   -0.7174   55.6227 H       1  ZINC000821177065    0.1700
@<TRIPOS>BOND
     1     1     2    2
     2     2     3   am
     3     2    13   am
     4     3     4    1
     5     3    26    1
     6     4     5    1
     7     4    27    1
     8     4    28    1
     9     5     6    1
    10     5     7    1
    11     5    10    1
    12     6    29    1
    13     7     9    1
    14     7     8    1
    15     7    30    1
    16     8     9    1
    17     8    31    1
    18     8    32    1
    19     9    33    1
    20     9    34    1
    21    10    12    1
    22    10    11    1
    23    10    35    1
    24    11    12    1
    25    11    36    1
    26    11    37    1
    27    12    38    1
    28    12    39    1
    29    13    14    1
    30    13    40    1
    31    14    25    1
    32    14    15    2
    33    15    16    1
    34    16    17    1
    35    16    24    1
    36    17    18    1
    37    17    41    1
    38    17    42    1
    39    18    23   ar
    40    18    19   ar
    41    19    20   ar
    42    19    43    1
    43    20    21   ar
    44    20    44    1
    45    21    22   ar
    46    21    45    1
    47    22    23   ar
    48    22    46    1
    49    24    25    2
    50    24    47    1
    51    25    48    1
@<TRIPOS>SUBSTRUCTURE
     1 ZINC000821177065        1 TEMP              0 ****  ****    0 ROOT


##########                                Name:    ZINC000425987417
##########                DOCK_Rotatable_Bonds:                   9
##########                         Heavy_Atoms:                  25
##########                    Molecular_Weight:             357.419
##########                DOCK_Rotatable_Bonds:                   9
##########                       Formal_Charge:         -0.00999992
##########                     HBond_Acceptors:                   7
##########                        HBond_Donors:                   1
##########                         Heavy_Atoms:                  25
##########                          Grid_Score:          -28.576691
##########                     Grid_vdw_energy:          -26.763872
##########                      Grid_es_energy:           -1.812818
##########           Internal_energy_repulsive:           11.957479

@<TRIPOS>MOLECULE
ZINC000425987417
 51 52 1 0 0
SMALL
USER_CHARGES


@<TRIPOS>ATOM
      1 C1        -12.3458    1.1717   59.6735 C.3     1  ZINC000425987417   -0.1500
      2 C2        -11.6536    0.1601   60.5893 C.3     1  ZINC000425987417    0.0400
      3 N3        -11.1914   -0.9848   59.7934 N.3     1  ZINC000425987417   -0.5300
      4 C4        -10.0594   -1.6567   60.4455 C.3     1  ZINC000425987417    0.0400
      5 C5         -8.7811   -1.3928   59.6474 C.3     1  ZINC000425987417    0.1400
      6 N6         -9.1241   -0.7620   58.3704 N.am    1  ZINC000425987417   -0.7500
      7 C7         -8.2410    0.0558   57.7640 C.2     1  ZINC000425987417    0.7200
      8 O8         -7.1595    0.2699   58.2767 O.2     1  ZINC000425987417   -0.5800
      9 N9         -8.5566    0.6361   56.5893 N.am    1  ZINC000425987417   -0.6200
     10 C10        -9.8574    0.3972   55.9425 C.3     1  ZINC000425987417    0.1300
     11 C11        -9.5990   -0.3206   54.6187 C.3     1  ZINC000425987417   -0.1000
     12 C12        -8.5020    0.3614   53.8443 C.ar    1  ZINC000425987417   -0.0600
     13 C13        -8.4311    0.1190   52.4782 C.ar    1  ZINC000425987417   -0.1200
     14 C14        -7.4448    0.7045   51.7117 C.ar    1  ZINC000425987417   -0.1100
     15 C15        -6.5168    1.5390   52.3060 C.ar    1  ZINC000425987417   -0.1200
     16 C16        -6.5869    1.7842   53.6622 C.ar    1  ZINC000425987417   -0.1100
     17 C17        -7.5822    1.2003   54.4333 C.ar    1  ZINC000425987417   -0.0900
     18 C18        -7.6202    1.5357   55.9070 C.3     1  ZINC000425987417    0.1800
     19 H19        -6.6242    1.4133   56.3327 H       1  ZINC000425987417    0.0900
     20 C20        -8.0764    2.9850   56.0876 C.3     1  ZINC000425987417   -0.1600
     21 C21       -12.2890   -1.9279   59.5409 C.3     1  ZINC000425987417    0.0500
     22 C22       -11.9631   -2.7712   58.3066 C.3     1  ZINC000425987417   -0.1600
     23 C23       -13.2624   -3.2789   57.6782 C.3     1  ZINC000425987417    0.4500
     24 F24       -12.9699   -4.2841   56.7502 F       1  ZINC000425987417   -0.1800
     25 F25       -14.0937   -3.7949   58.6780 F       1  ZINC000425987417   -0.1800
     26 F26       -13.9116   -2.2219   57.0314 F       1  ZINC000425987417   -0.1900
     27 H27       -13.2257    0.7118   59.2237 H       1  ZINC000425987417    0.0500
     28 H28       -12.6482    2.0417   60.2563 H       1  ZINC000425987417    0.0600
     29 H29       -11.6564    1.4820   58.8884 H       1  ZINC000425987417    0.0700
     30 H30       -10.8000    0.6336   61.0743 H       1  ZINC000425987417    0.0800
     31 H31       -12.3571   -0.1847   61.3472 H       1  ZINC000425987417    0.0400
     32 H32        -9.9420   -1.2703   61.4580 H       1  ZINC000425987417    0.0500
     33 H33       -10.2478   -2.7295   60.4857 H       1  ZINC000425987417    0.0800
     34 H34        -8.1281   -0.7307   60.2160 H       1  ZINC000425987417    0.0800
     35 H35        -8.2682   -2.3362   59.4604 H       1  ZINC000425987417    0.0700
     36 H36        -9.9869   -0.9328   57.9615 H       1  ZINC000425987417    0.3900
     37 H37       -10.4796   -0.2262   56.5847 H       1  ZINC000425987417    0.1000
     38 H38       -10.3563    1.3480   55.7552 H       1  ZINC000425987417    0.0700
     39 H39        -9.3079   -1.3513   54.8206 H       1  ZINC000425987417    0.0800
     40 H40       -10.5128   -0.3169   54.0245 H       1  ZINC000425987417    0.0900
     41 H41        -9.1542   -0.5339   52.0122 H       1  ZINC000425987417    0.1200
     42 H42        -7.3977    0.5111   50.6502 H       1  ZINC000425987417    0.1200
     43 H43        -5.7400    1.9967   51.7115 H       1  ZINC000425987417    0.1200
     44 H44        -5.8616    2.4355   54.1271 H       1  ZINC000425987417    0.1200
     45 H45        -9.0717    3.1084   55.6607 H       1  ZINC000425987417    0.0700
     46 H46        -8.1040    3.2274   57.1499 H       1  ZINC000425987417    0.0600
     47 H47        -7.3786    3.6514   55.5808 H       1  ZINC000425987417    0.0700
     48 H48       -12.4128   -2.5811   60.4048 H       1  ZINC000425987417    0.0500
     49 H49       -13.2118   -1.3739   59.3692 H       1  ZINC000425987417    0.0900
     50 H50       -11.4231   -2.1614   57.5822 H       1  ZINC000425987417    0.1200
     51 H51       -11.3452   -3.6200   58.5993 H       1  ZINC000425987417    0.1100
@<TRIPOS>BOND
     1     1     2    1
     2     1    27    1
     3     1    28    1
     4     1    29    1
     5     2     3    1
     6     2    30    1
     7     2    31    1
     8     3     4    1
     9     3    21    1
    10     4     5    1
    11     4    32    1
    12     4    33    1
    13     5     6    1
    14     5    34    1
    15     5    35    1
    16     6     7   am
    17     6    36    1
    18     7     8    2
    19     7     9   am
    20     9    18    1
    21     9    10    1
    22    10    11    1
    23    10    37    1
    24    10    38    1
    25    11    12    1
    26    11    39    1
    27    11    40    1
    28    12    17   ar
    29    12    13   ar
    30    13    14   ar
    31    13    41    1
    32    14    15   ar
    33    14    42    1
    34    15    16   ar
    35    15    43    1
    36    16    17   ar
    37    16    44    1
    38    17    18    1
    39    18    19    1
    40    18    20    1
    41    20    45    1
    42    20    46    1
    43    20    47    1
    44    21    22    1
    45    21    48    1
    46    21    49    1
    47    22    23    1
    48    22    50    1
    49    22    51    1
    50    23    24    1
    51    23    25    1
    52    23    26    1
@<TRIPOS>SUBSTRUCTURE
     1 ZINC000425987417        1 TEMP              0 ****  ****    0 ROOT


##########                                Name:    ZINC000564088286
##########                DOCK_Rotatable_Bonds:                   6
##########                         Heavy_Atoms:                  25
##########                    Molecular_Weight:             398.934
##########                DOCK_Rotatable_Bonds:                   6
##########                       Formal_Charge:               -0.05
##########                     HBond_Acceptors:                   8
##########                        HBond_Donors:                   1
##########                         Heavy_Atoms:                  25
##########                          Grid_Score:          -28.570789
##########                     Grid_vdw_energy:          -27.777851
##########                      Grid_es_energy:           -0.792939
##########           Internal_energy_repulsive:           15.380885

@<TRIPOS>MOLECULE
ZINC000564088286
 44 46 1 0 0
SMALL
USER_CHARGES


@<TRIPOS>ATOM
      1 C1         -9.5151    4.9435   50.3523 C.3     1  ZINC000564088286   -0.1600
      2 C2         -8.3460    4.6775   51.3028 C.3     1  ZINC000564088286    0.1100
      3 N3         -7.4237    3.7206   50.6865 N.am    1  ZINC000564088286   -1.1200
      4 S4         -6.5366    2.6956   51.6378 S.o2    1  ZINC000564088286    2.7000
      5 O5         -5.8685    1.8056   50.7541 O.2     1  ZINC000564088286   -0.9600
      6 O6         -5.8553    3.5119   52.5805 O.2     1  ZINC000564088286   -0.9600
      7 C7         -7.6782    1.7191   52.5583 C.ar    1  ZINC000564088286   -0.6800
      8 C8         -8.4331    2.2993   53.5606 C.ar    1  ZINC000564088286   -0.0200
      9 C9         -9.3288    1.5332   54.2828 C.ar    1  ZINC000564088286   -0.1300
     10 C10        -9.4700    0.1868   54.0026 C.ar    1  ZINC000564088286   -0.0100
     11 C11       -10.4460   -0.6484   54.7903 C.3     1  ZINC000564088286   -0.1100
     12 C12        -9.8854   -0.9146   56.1636 C.2     1  ZINC000564088286    0.5200
     13 O13        -8.8016   -0.4668   56.4734 O.2     1  ZINC000564088286   -0.5200
     14 N14       -10.5882   -1.6501   57.0476 N.am    1  ZINC000564088286   -0.6200
     15 C15       -10.0596   -1.9217   58.3928 C.3     1  ZINC000564088286    0.1200
     16 C16       -10.9697   -1.2430   59.4210 C.3     1  ZINC000564088286   -0.0700
     17 C17       -12.4142   -1.5243   59.0655 C.2     1  ZINC000564088286   -0.1600
     18 C18       -12.8475   -1.9420   57.8614 C.2     1  ZINC000564088286   -0.1200
     19 C19       -14.2262   -2.1185   57.7905 C.2     1  ZINC000564088286   -0.1100
     20 C20       -14.8976   -1.8588   58.9093 C.2     1  ZINC000564088286   -0.1500
     21 Cl21      -16.6174   -1.9983   59.0999 Cl      1  ZINC000564088286   -0.0100
     22 S22       -13.7769   -1.3534   60.1646 S.3     1  ZINC000564088286    0.1600
     23 C23       -11.9062   -2.1968   56.6947 C.3     1  ZINC000564088286    0.1700
     24 C24        -8.7160   -0.3930   52.9995 C.ar    1  ZINC000564088286   -0.1300
     25 C25        -7.8232    0.3739   52.2746 C.ar    1  ZINC000564088286   -0.0200
     26 H26        -9.1364    5.3549   49.4166 H       1  ZINC000564088286    0.0600
     27 H27       -10.0405    4.0098   50.1524 H       1  ZINC000564088286    0.0600
     28 H28       -10.2014    5.6556   50.8108 H       1  ZINC000564088286    0.0700
     29 H29        -7.8206    5.6114   51.5027 H       1  ZINC000564088286    0.0800
     30 H30        -8.7248    4.2663   52.2385 H       1  ZINC000564088286    0.0700
     31 H31        -7.3327    3.6872   49.7214 H       1  ZINC000564088286    0.4200
     32 H32        -8.3228    3.3511   53.7795 H       1  ZINC000564088286    0.1400
     33 H33        -9.9180    1.9864   55.0663 H       1  ZINC000564088286    0.1300
     34 H34       -11.3914   -0.1136   54.8813 H       1  ZINC000564088286    0.1100
     35 H35       -10.6120   -1.5950   54.2760 H       1  ZINC000564088286    0.1100
     36 H36       -10.0451   -2.9971   58.5701 H       1  ZINC000564088286    0.0800
     37 H37        -9.0494   -1.5207   58.4768 H       1  ZINC000564088286    0.1100
     38 H38       -10.7553   -1.6376   60.4143 H       1  ZINC000564088286    0.0900
     39 H39       -10.7943   -0.1672   59.4093 H       1  ZINC000564088286    0.0900
     40 H40       -14.7189   -2.4447   56.8864 H       1  ZINC000564088286    0.1500
     41 H41       -12.2854   -1.7035   55.7998 H       1  ZINC000564088286    0.1000
     42 H42       -11.8194   -3.2687   56.5176 H       1  ZINC000564088286    0.0900
     43 H43        -8.8266   -1.4447   52.7803 H       1  ZINC000564088286    0.1300
     44 H44        -7.2341   -0.0791   51.4910 H       1  ZINC000564088286    0.1400
@<TRIPOS>BOND
     1     1     2    1
     2     1    26    1
     3     1    27    1
     4     1    28    1
     5     2     3    1
     6     2    29    1
     7     2    30    1
     8     3     4   am
     9     3    31    1
    10     4     5    2
    11     4     6    2
    12     4     7    1
    13     7    25   ar
    14     7     8   ar
    15     8     9   ar
    16     8    32    1
    17     9    10   ar
    18     9    33    1
    19    10    11    1
    20    10    24   ar
    21    11    12    1
    22    11    34    1
    23    11    35    1
    24    12    13    2
    25    12    14   am
    26    14    23    1
    27    14    15    1
    28    15    16    1
    29    15    36    1
    30    15    37    1
    31    16    17    1
    32    16    38    1
    33    16    39    1
    34    17    22    1
    35    17    18    2
    36    18    19    1
    37    18    23    1
    38    19    20    2
    39    19    40    1
    40    20    21    1
    41    20    22    1
    42    23    41    1
    43    23    42    1
    44    24    25   ar
    45    24    43    1
    46    25    44    1
@<TRIPOS>SUBSTRUCTURE
     1 ZINC000564088286        1 TEMP              0 ****  ****    0 ROOT


##########                                Name:    ZINC001015666108
##########                DOCK_Rotatable_Bonds:                   7
##########                         Heavy_Atoms:                  25
##########                    Molecular_Weight:             346.429
##########                DOCK_Rotatable_Bonds:                   7
##########                       Formal_Charge:          -0.0199997
##########                     HBond_Acceptors:                   7
##########                        HBond_Donors:                   1
##########                         Heavy_Atoms:                  25
##########                          Grid_Score:          -28.563116
##########                     Grid_vdw_energy:          -28.547068
##########                      Grid_es_energy:           -0.016048
##########           Internal_energy_repulsive:          111.878654

@<TRIPOS>MOLECULE
ZINC001015666108
 51 53 1 0 0
SMALL
USER_CHARGES


@<TRIPOS>ATOM
      1 C1        -14.2511   -2.6173   60.6212 C.3     1  ZINC001015666108   -0.1400
      2 C2        -14.0468   -1.9562   59.2565 C.3     1  ZINC001015666108   -0.0700
      3 C3        -13.4484   -2.9546   58.2994 C.2     1  ZINC001015666108   -0.0700
      4 C4        -12.1220   -3.1259   58.0240 C.2     1  ZINC001015666108   -0.0900
      5 C5        -11.0147   -2.3644   58.6111 C.2     1  ZINC001015666108    0.6100
      6 O6        -10.0246   -2.1201   57.9468 O.2     1  ZINC001015666108   -0.5100
      7 N7        -11.0935   -1.9350   59.8862 N.am    1  ZINC001015666108   -0.7200
      8 C8         -9.9866   -1.1758   60.4733 C.3     1  ZINC001015666108    0.1400
      9 H9         -9.9071   -1.3874   61.5396 H       1  ZINC001015666108    0.1100
     10 C10        -8.6604   -1.5207   59.7575 C.3     1  ZINC001015666108   -0.1300
     11 C11        -8.5144   -0.3732   58.7268 C.3     1  ZINC001015666108    0.0300
     12 N12        -9.0255    0.8116   59.4624 N.3     1  ZINC001015666108   -0.5100
     13 C13        -9.4163    1.8800   58.5331 C.3     1  ZINC001015666108    0.1700
     14 H14       -10.2305    1.5299   57.8987 H       1  ZINC001015666108    0.0900
     15 C15        -9.8788    3.1031   59.3276 C.3     1  ZINC001015666108   -0.1500
     16 C16        -8.2362    2.2556   57.6745 C.2     1  ZINC001015666108    0.1900
     17 N17        -8.1972    2.2702   56.3639 N.2     1  ZINC001015666108   -0.4800
     18 C18        -6.9522    2.6653   56.0431 C.2     1  ZINC001015666108    0.1800
     19 C19        -6.4035    2.8421   54.6508 C.3     1  ZINC001015666108    0.0000
     20 C20        -7.2874    2.0888   53.6547 C.3     1  ZINC001015666108   -0.1500
     21 C21        -6.3868    4.3298   54.2942 C.3     1  ZINC001015666108   -0.1500
     22 N22        -6.3096    2.8671   57.1543 N.2     1  ZINC001015666108   -0.3800
     23 O23        -7.0312    2.6429   58.1033 O.3     1  ZINC001015666108    0.1000
     24 C24       -10.1908    0.3328   60.2414 C.3     1  ZINC001015666108    0.0300
     25 O25       -12.0087   -4.1184   57.1172 O.3     1  ZINC001015666108   -0.1700
     26 C26       -13.2273   -4.5811   56.8100 C.2     1  ZINC001015666108    0.0000
     27 C27       -14.1461   -3.8926   57.5225 C.2     1  ZINC001015666108   -0.2200
     28 H28       -14.6839   -1.8952   61.3136 H       1  ZINC001015666108    0.0600
     29 H29       -14.9242   -3.4680   60.5156 H       1  ZINC001015666108    0.0600
     30 H30       -13.2907   -2.9596   61.0066 H       1  ZINC001015666108    0.0500
     31 H31       -15.0072   -1.6139   58.8712 H       1  ZINC001015666108    0.0900
     32 H32       -13.3735   -1.1055   59.3622 H       1  ZINC001015666108    0.0700
     33 H33       -11.8831   -2.1286   60.4153 H       1  ZINC001015666108    0.4000
     34 H34        -7.8288   -1.5142   60.4622 H       1  ZINC001015666108    0.0900
     35 H35        -8.7332   -2.4846   59.2540 H       1  ZINC001015666108    0.0800
     36 H36        -7.4689   -0.2337   58.4519 H       1  ZINC001015666108    0.0800
     37 H37        -9.1225   -0.5696   57.8438 H       1  ZINC001015666108    0.0500
     38 H38        -9.0646    3.4533   59.9621 H       1  ZINC001015666108    0.0800
     39 H39       -10.1688    3.8959   58.6381 H       1  ZINC001015666108    0.0700
     40 H40       -10.7324    2.8315   59.9486 H       1  ZINC001015666108    0.0800
     41 H41        -5.3887    2.4466   54.6072 H       1  ZINC001015666108    0.1000
     42 H42        -8.3023    2.4841   53.6983 H       1  ZINC001015666108    0.0600
     43 H43        -6.8906    2.2166   52.6477 H       1  ZINC001015666108    0.0700
     44 H44        -7.2994    1.0289   53.9088 H       1  ZINC001015666108    0.0600
     45 H45        -7.4016    4.7253   54.3377 H       1  ZINC001015666108    0.0600
     46 H46        -5.7570    4.8665   55.0037 H       1  ZINC001015666108    0.0600
     47 H47        -5.9899    4.4577   53.2871 H       1  ZINC001015666108    0.0700
     48 H48       -11.1085    0.5008   59.6779 H       1  ZINC001015666108    0.0600
     49 H49       -10.2382    0.8545   61.1973 H       1  ZINC001015666108    0.1000
     50 H50       -13.4403   -5.3764   56.1110 H       1  ZINC001015666108    0.2100
     51 H51       -15.2166   -4.0333   57.4947 H       1  ZINC001015666108    0.1600
@<TRIPOS>BOND
     1     1     2    1
     2     1    28    1
     3     1    29    1
     4     1    30    1
     5     2     3    1
     6     2    31    1
     7     2    32    1
     8     3    27    1
     9     3     4    2
    10     4     5    1
    11     4    25    1
    12     5     6    2
    13     5     7   am
    14     7     8    1
    15     7    33    1
    16     8     9    1
    17     8    24    1
    18     8    10    1
    19    10    11    1
    20    10    34    1
    21    10    35    1
    22    11    12    1
    23    11    36    1
    24    11    37    1
    25    12    13    1
    26    12    24    1
    27    13    14    1
    28    13    15    1
    29    13    16    1
    30    15    38    1
    31    15    39    1
    32    15    40    1
    33    16    23    1
    34    16    17    2
    35    17    18    1
    36    18    19    1
    37    18    22    2
    38    19    20    1
    39    19    21    1
    40    19    41    1
    41    20    42    1
    42    20    43    1
    43    20    44    1
    44    21    45    1
    45    21    46    1
    46    21    47    1
    47    22    23    1
    48    24    48    1
    49    24    49    1
    50    25    26    1
    51    26    27    2
    52    26    50    1
    53    27    51    1
@<TRIPOS>SUBSTRUCTURE
     1 ZINC001015666108        1 TEMP              0 ****  ****    0 ROOT


##########                                Name:    ZINC000338927927
##########                DOCK_Rotatable_Bonds:                   9
##########                         Heavy_Atoms:                  23
##########                    Molecular_Weight:             336.286
##########                DOCK_Rotatable_Bonds:                   9
##########                       Formal_Charge:         -0.00999999
##########                     HBond_Acceptors:                   9
##########                        HBond_Donors:                   2
##########                         Heavy_Atoms:                  23
##########                          Grid_Score:          -28.544436
##########                     Grid_vdw_energy:          -23.095207
##########                      Grid_es_energy:           -5.449228
##########           Internal_energy_repulsive:           16.825264

@<TRIPOS>MOLECULE
ZINC000338927927
 39 39 1 0 0
SMALL
USER_CHARGES


@<TRIPOS>ATOM
      1 C1         -9.5568    2.7923   66.9972 C.3     1  <0>        -0.1600
      2 C2         -9.8862    1.3606   66.5701 C.3     1  <0>        -0.1100
      3 C3         -8.6841    0.7564   65.8414 C.3     1  <0>        -0.1000
      4 H4         -7.8522    1.4603   65.8673 H       1  <0>         0.1400
      5 C5         -9.0563    0.4710   64.4093 C.2     1  <0>         0.5200
      6 O6         -8.9024   -0.6421   63.9529 O.2     1  <0>        -0.4700
      7 N7         -9.5601    1.4529   63.6354 N.am    1  <0>        -0.6700
      8 C8         -9.9056    1.1880   62.3057 C.ar    1  <0>         0.2200
      9 C9         -8.9755    1.3853   61.2937 C.ar    1  <0>        -0.2300
     10 C10        -9.3166    1.1235   59.9780 C.ar    1  <0>         0.1700
     11 F11        -8.4102    1.3162   58.9949 F       1  <0>        -0.1300
     12 C12       -10.5844    0.6640   59.6684 C.ar    1  <0>        -0.2500
     13 C13       -11.5180    0.4652   60.6779 C.ar    1  <0>         0.2600
     14 N14       -12.7980    0.0018   60.3649 N.pl3   1  <0>        -0.7400
     15 C15       -12.9728   -1.3332   59.7873 C.3     1  <0>         0.0800
     16 C16       -14.4264   -1.7775   59.9607 C.3     1  <0>         0.4500
     17 F17       -14.6324   -2.1942   61.2802 F       1  <0>        -0.1800
     18 F18       -15.2791   -0.7068   59.6713 F       1  <0>        -0.1700
     19 F19       -14.6971   -2.8379   59.0891 F       1  <0>        -0.1800
     20 C20       -11.1762    0.7222   61.9982 C.ar    1  <0>        -0.2000
     21 C21        -8.2780   -0.5264   66.5201 C.2     1  <0>         0.4600
     22 O22        -9.0295   -1.4725   66.5229 O.2     1  <0>        -0.4600
     23 O23        -7.0816   -0.6178   67.1215 O.3     1  <0>        -0.3500
     24 C24        -6.2312    0.5583   67.0798 C.3     1  <0>         0.0300
     25 H25        -9.3279    3.3910   66.1157 H       1  <0>         0.0600
     26 H26       -10.4132    3.2226   67.5164 H       1  <0>         0.0600
     27 H27        -8.6946    2.7832   67.6642 H       1  <0>         0.0800
     28 H28       -10.1151    0.7619   67.4517 H       1  <0>         0.0800
     29 H29       -10.7483    1.3697   65.9031 H       1  <0>         0.0800
     30 H30        -9.6832    2.3431   64.0004 H       1  <0>         0.4200
     31 H31        -7.9854    1.7439   61.5332 H       1  <0>         0.1400
     32 H32       -10.8486    0.4603   58.6411 H       1  <0>         0.1400
     33 H33       -13.5710    0.5638   60.5299 H       1  <0>         0.4100
     34 H34       -12.7256   -1.3051   58.7261 H       1  <0>         0.1100
     35 H35       -12.3143   -2.0378   60.2952 H       1  <0>         0.1100
     36 H36       -11.9006    0.5682   62.7841 H       1  <0>         0.1500
     37 H37        -5.2968    0.3499   67.6012 H       1  <0>         0.1000
     38 H38        -6.0185    0.8164   66.0424 H       1  <0>         0.0600
     39 H39        -6.7396    1.3917   67.5647 H       1  <0>         0.0600
@<TRIPOS>BOND
     1     1     2    1
     2     1    25    1
     3     1    26    1
     4     1    27    1
     5     2     3    1
     6     2    28    1
     7     2    29    1
     8     3     4    1
     9     3     5    1
    10     3    21    1
    11     5     6    2
    12     5     7   am
    13     7     8    1
    14     7    30    1
    15     8    20   ar
    16     8     9   ar
    17     9    10   ar
    18     9    31    1
    19    10    11    1
    20    10    12   ar
    21    12    13   ar
    22    12    32    1
    23    13    14    1
    24    13    20   ar
    25    14    15    1
    26    14    33    1
    27    15    16    1
    28    15    34    1
    29    15    35    1
    30    16    17    1
    31    16    18    1
    32    16    19    1
    33    20    36    1
    34    21    22    2
    35    21    23    1
    36    23    24    1
    37    24    37    1
    38    24    38    1
    39    24    39    1
@<TRIPOS>SUBSTRUCTURE
     1 <0>         1 TEMP              0 ****  ****    0 ROOT


##########                                Name:    ZINC000265786263
##########                DOCK_Rotatable_Bonds:                   7
##########                         Heavy_Atoms:                  28
##########                    Molecular_Weight:             386.451
##########                DOCK_Rotatable_Bonds:                   7
##########                       Formal_Charge:           0.0499992
##########                     HBond_Acceptors:                   8
##########                        HBond_Donors:                   2
##########                         Heavy_Atoms:                  28
##########                          Grid_Score:          -28.541428
##########                     Grid_vdw_energy:          -27.672333
##########                      Grid_es_energy:           -0.869095
##########           Internal_energy_repulsive:           22.190763

@<TRIPOS>MOLECULE
ZINC000265786263
 54 57 1 0 0
SMALL
USER_CHARGES


@<TRIPOS>ATOM
      1 C1         -6.3854    2.5594   55.5237 C.3     1  ZINC000265786263   -0.1500
      2 C2         -7.0750    2.6531   54.1611 C.3     1  ZINC000265786263    0.1600
      3 C3         -6.7500    3.9870   53.4858 C.3     1  ZINC000265786263   -0.1600
      4 C4         -5.4174    4.0961   52.7422 C.3     1  ZINC000265786263   -0.1600
      5 C5         -6.7277    4.0175   51.9563 C.3     1  ZINC000265786263   -0.1600
      6 N6         -6.6802    1.5237   53.3017 N.am    1  ZINC000265786263   -0.7100
      7 C7         -7.8048    0.8394   53.0247 C.2     1  ZINC000265786263    0.7100
      8 O8         -7.8349   -0.1592   52.3326 O.2     1  ZINC000265786263   -0.5400
      9 N9         -8.8865    1.3811   53.5963 N.am    1  ZINC000265786263   -0.5600
     10 C10       -10.2431    0.8439   53.4644 C.3     1  ZINC000265786263    0.1000
     11 C11       -10.2426   -0.6175   53.8323 C.2     1  ZINC000265786263    0.5100
     12 O12       -10.3420   -1.4609   52.9664 O.2     1  ZINC000265786263   -0.5300
     13 N13       -10.1317   -0.9873   55.1236 N.am    1  ZINC000265786263   -0.6100
     14 C14       -10.0180    0.0193   56.1900 C.3     1  ZINC000265786263    0.1100
     15 C15       -11.0625   -0.2925   57.2670 C.3     1  ZINC000265786263    0.0400
     16 N16       -10.9059   -1.6849   57.7080 N.3     1  ZINC000265786263   -0.5300
     17 C17       -11.7724   -1.9734   58.8586 C.3     1  ZINC000265786263    0.0900
     18 C18       -11.3875   -1.0841   60.0128 C.ar    1  ZINC000265786263   -0.0600
     19 C19       -10.0842   -1.0761   60.4737 C.ar    1  ZINC000265786263   -0.1300
     20 C20        -9.7279   -0.2611   61.5326 C.ar    1  ZINC000265786263   -0.1000
     21 C21       -10.6738    0.5471   62.1324 C.ar    1  ZINC000265786263   -0.1400
     22 C22       -11.9826    0.5407   61.6716 C.ar    1  ZINC000265786263    0.1100
     23 O23       -12.9151    1.3353   62.2599 O.3     1  ZINC000265786263   -0.5000
     24 C24       -12.3363   -0.2734   60.6057 C.ar    1  ZINC000265786263   -0.1200
     25 C25       -11.1617   -2.6242   56.6079 C.3     1  ZINC000265786263    0.0400
     26 C26       -10.1274   -2.4079   55.5043 C.3     1  ZINC000265786263    0.1200
     27 C27        -8.5738    2.4813   54.3089 C.2     1  ZINC000265786263    0.5400
     28 O28        -9.3332    3.1866   54.9381 O.2     1  ZINC000265786263   -0.4500
     29 H29        -6.5974    1.5888   55.9723 H       1  ZINC000265786263    0.0700
     30 H30        -5.3091    2.6728   55.3948 H       1  ZINC000265786263    0.0800
     31 H31        -6.7586    3.3499   56.1749 H       1  ZINC000265786263    0.0900
     32 H32        -7.1132    4.8758   54.0017 H       1  ZINC000265786263    0.1100
     33 H33        -4.9035    5.0571   52.7688 H       1  ZINC000265786263    0.1000
     34 H34        -4.7721    3.2177   52.7340 H       1  ZINC000265786263    0.1100
     35 H35        -6.9445    3.0873   51.4310 H       1  ZINC000265786263    0.1000
     36 H36        -7.0758    4.9267   51.4659 H       1  ZINC000265786263    0.1000
     37 H37        -5.7841    1.3145   52.9949 H       1  ZINC000265786263    0.4400
     38 H38       -10.9147    1.3860   54.1301 H       1  ZINC000265786263    0.1300
     39 H39       -10.5811    0.9593   52.4346 H       1  ZINC000265786263    0.1300
     40 H40        -9.0198   -0.0201   56.6258 H       1  ZINC000265786263    0.0900
     41 H41       -10.2018    1.0116   55.7779 H       1  ZINC000265786263    0.0900
     42 H42       -10.9202    0.3761   58.1160 H       1  ZINC000265786263    0.0900
     43 H43       -12.0622   -0.1513   56.8560 H       1  ZINC000265786263    0.0400
     44 H44       -12.8114   -1.7867   58.5868 H       1  ZINC000265786263    0.0900
     45 H45       -11.6549   -3.0173   59.1493 H       1  ZINC000265786263    0.0500
     46 H46        -9.3432   -1.7075   60.0062 H       1  ZINC000265786263    0.1200
     47 H47        -8.7091   -0.2568   61.8910 H       1  ZINC000265786263    0.1300
     48 H48       -10.3950    1.1830   62.9596 H       1  ZINC000265786263    0.1300
     49 H49       -12.5727    1.8693   62.9898 H       1  ZINC000265786263    0.3900
     50 H50       -13.3543   -0.2800   60.2453 H       1  ZINC000265786263    0.1300
     51 H51       -11.0913   -3.6467   56.9788 H       1  ZINC000265786263    0.1000
     52 H52       -12.1599   -2.4506   56.2060 H       1  ZINC000265786263    0.0400
     53 H53       -10.3809   -3.0211   54.6395 H       1  ZINC000265786263    0.1000
     54 H54        -9.1377   -2.6793   55.8717 H       1  ZINC000265786263    0.0800
@<TRIPOS>BOND
     1     1     2    1
     2     1    29    1
     3     1    30    1
     4     1    31    1
     5     2    27    1
     6     2     3    1
     7     2     6    1
     8     3     5    1
     9     3     4    1
    10     3    32    1
    11     4     5    1
    12     4    33    1
    13     4    34    1
    14     5    35    1
    15     5    36    1
    16     6     7   am
    17     6    37    1
    18     7     8    2
    19     7     9   am
    20     9    10    1
    21     9    27   am
    22    10    11    1
    23    10    38    1
    24    10    39    1
    25    11    12    2
    26    11    13   am
    27    13    26    1
    28    13    14    1
    29    14    15    1
    30    14    40    1
    31    14    41    1
    32    15    16    1
    33    15    42    1
    34    15    43    1
    35    16    17    1
    36    16    25    1
    37    17    18    1
    38    17    44    1
    39    17    45    1
    40    18    24   ar
    41    18    19   ar
    42    19    20   ar
    43    19    46    1
    44    20    21   ar
    45    20    47    1
    46    21    22   ar
    47    21    48    1
    48    22    23    1
    49    22    24   ar
    50    23    49    1
    51    24    50    1
    52    25    26    1
    53    25    51    1
    54    25    52    1
    55    26    53    1
    56    26    54    1
    57    27    28    2
@<TRIPOS>SUBSTRUCTURE
     1 ZINC000265786263        1 TEMP              0 ****  ****    0 ROOT


##########                                Name:    ZINC000898967786
##########                DOCK_Rotatable_Bonds:                   5
##########                         Heavy_Atoms:                  25
##########                    Molecular_Weight:             356.448
##########                DOCK_Rotatable_Bonds:                   5
##########                       Formal_Charge:        -2.38419e-07
##########                     HBond_Acceptors:                   7
##########                        HBond_Donors:                   1
##########                         Heavy_Atoms:                  25
##########                          Grid_Score:          -28.540478
##########                     Grid_vdw_energy:          -26.935572
##########                      Grid_es_energy:           -1.604906
##########           Internal_energy_repulsive:           13.509476

@<TRIPOS>MOLECULE
ZINC000898967786
 45 48 1 0 0
SMALL
USER_CHARGES


@<TRIPOS>ATOM
      1 C1        -13.3761   -1.7308   58.1826 C.3     1  ZINC000898967786   -0.0800
      2 C2        -12.3046   -1.2604   59.1322 C.2     1  ZINC000898967786    0.0900
      3 C3        -10.9971   -1.5957   59.0737 C.2     1  ZINC000898967786   -0.1000
      4 C4        -10.3503   -2.5001   58.0565 C.3     1  ZINC000898967786    0.2200
      5 N5        -10.4859   -1.9103   56.7224 N.am    1  ZINC000898967786   -0.7400
      6 C6         -9.7252   -0.8543   56.3718 C.2     1  ZINC000898967786    0.7100
      7 O7         -8.9263   -0.3914   57.1629 O.2     1  ZINC000898967786   -0.5800
      8 N8         -9.8500   -0.3117   55.1445 N.am    1  ZINC000898967786   -0.6300
      9 C9        -10.8098   -0.8549   54.1703 C.3     1  ZINC000898967786    0.0900
     10 C10       -10.0737   -1.0916   52.8467 C.3     1  ZINC000898967786    0.0500
     11 O11        -9.3921    0.1062   52.4663 O.3     1  ZINC000898967786   -0.3700
     12 C12        -8.3813    0.5221   53.3877 C.3     1  ZINC000898967786    0.1400
     13 H13        -7.6524   -0.2784   53.5143 H       1  ZINC000898967786    0.0700
     14 C14        -7.6912    1.7520   52.8566 C.2     1  ZINC000898967786   -0.1100
     15 C15        -8.1093    2.9871   53.1379 C.2     1  ZINC000898967786   -0.1800
     16 S16        -7.0629    4.1585   52.3465 S.3     1  ZINC000898967786    0.1100
     17 C17        -6.0877    2.8669   51.6578 C.2     1  ZINC000898967786   -0.2100
     18 C18        -6.5721    1.6858   52.0446 C.2     1  ZINC000898967786   -0.1300
     19 C19        -9.0347    0.8450   54.7411 C.3     1  ZINC000898967786    0.0900
     20 N20       -10.3701   -0.9601   60.1105 N.pl3   1  ZINC000898967786   -0.3500
     21 C21        -9.0713   -0.9369   60.5294 C.2     1  ZINC000898967786    0.0600
     22 C22        -8.7100   -0.2111   61.6082 C.2     1  ZINC000898967786   -0.1400
     23 C23        -9.6693    0.5318   62.3162 C.2     1  ZINC000898967786   -0.1000
     24 C24       -10.9672    0.5175   61.9095 C.2     1  ZINC000898967786   -0.0800
     25 C25       -11.3286   -0.2451   60.7807 C.2     1  ZINC000898967786    0.2400
     26 N26       -12.4881   -0.4384   60.1681 N.2     1  ZINC000898967786   -0.4900
     27 H27       -13.4502   -1.0364   57.3457 H       1  ZINC000898967786    0.0800
     28 H28       -13.1214   -2.7230   57.8100 H       1  ZINC000898967786    0.0700
     29 H29       -14.3317   -1.7732   58.7053 H       1  ZINC000898967786    0.0800
     30 H30        -9.2935   -2.6188   58.2956 H       1  ZINC000898967786    0.1000
     31 H31       -10.8384   -3.4746   58.0742 H       1  ZINC000898967786    0.0700
     32 H32       -11.1233   -2.2796   56.0913 H       1  ZINC000898967786    0.4000
     33 H33       -11.2138   -1.7975   54.5393 H       1  ZINC000898967786    0.1100
     34 H34       -11.6204   -0.1424   54.0172 H       1  ZINC000898967786    0.0800
     35 H35        -9.3509   -1.8979   52.9712 H       1  ZINC000898967786    0.0600
     36 H36       -10.7928   -1.3625   52.0735 H       1  ZINC000898967786    0.1100
     37 H37        -8.9604    3.2306   53.7565 H       1  ZINC000898967786    0.1700
     38 H38        -5.2257    3.0085   51.0228 H       1  ZINC000898967786    0.1700
     39 H39        -6.1296    0.7488   51.7407 H       1  ZINC000898967786    0.1400
     40 H40        -9.6651    1.7288   54.6428 H       1  ZINC000898967786    0.0800
     41 H41        -8.2619    1.0259   55.4881 H       1  ZINC000898967786    0.0900
     42 H42        -8.3259   -1.5049   59.9925 H       1  ZINC000898967786    0.1600
     43 H43        -7.6788   -0.2014   61.9288 H       1  ZINC000898967786    0.1500
     44 H44        -9.3777    1.1112   63.1797 H       1  ZINC000898967786    0.1500
     45 H45       -11.7134    1.0845   62.4464 H       1  ZINC000898967786    0.1500
@<TRIPOS>BOND
     1     1     2    1
     2     1    27    1
     3     1    28    1
     4     1    29    1
     5     2    26    1
     6     2     3    2
     7     3     4    1
     8     3    20    1
     9     4     5    1
    10     4    30    1
    11     4    31    1
    12     5     6   am
    13     5    32    1
    14     6     7    2
    15     6     8   am
    16     8    19    1
    17     8     9    1
    18     9    10    1
    19     9    33    1
    20     9    34    1
    21    10    11    1
    22    10    35    1
    23    10    36    1
    24    11    12    1
    25    12    13    1
    26    12    14    1
    27    12    19    1
    28    14    18    1
    29    14    15    2
    30    15    16    1
    31    15    37    1
    32    16    17    1
    33    17    18    2
    34    17    38    1
    35    18    39    1
    36    19    40    1
    37    19    41    1
    38    20    25    1
    39    20    21    1
    40    21    22    2
    41    21    42    1
    42    22    23    1
    43    22    43    1
    44    23    24    2
    45    23    44    1
    46    24    25    1
    47    24    45    1
    48    25    26    2
@<TRIPOS>SUBSTRUCTURE
     1 ZINC000898967786        1 TEMP              0 ****  ****    0 ROOT


##########                                Name:    ZINC000409064708
##########                DOCK_Rotatable_Bonds:                   8
##########                         Heavy_Atoms:                  29
##########                    Molecular_Weight:             415.442
##########                DOCK_Rotatable_Bonds:                   8
##########                       Formal_Charge:                0.03
##########                     HBond_Acceptors:                   8
##########                        HBond_Donors:                   0
##########                         Heavy_Atoms:                  29
##########                          Grid_Score:          -28.530258
##########                     Grid_vdw_energy:          -27.901245
##########                      Grid_es_energy:           -0.629013
##########           Internal_energy_repulsive:           27.315763

@<TRIPOS>MOLECULE
ZINC000409064708
 47 49 1 0 0
SMALL
USER_CHARGES


@<TRIPOS>ATOM
      1 C1        -10.9185   -0.3263   60.7555 C.3     1  ZINC000409064708    0.0400
      2 O2        -12.0594   -1.1829   60.4854 O.3     1  ZINC000409064708   -0.3500
      3 C3        -13.2254   -0.5767   60.2120 C.2     1  ZINC000409064708    0.4600
      4 O4        -13.4746    0.5010   60.6982 O.2     1  ZINC000409064708   -0.4900
      5 C5        -14.2235   -1.2402   59.2985 C.3     1  ZINC000409064708    0.1400
      6 H6        -14.9439   -1.8014   59.8939 H       1  ZINC000409064708    0.1500
      7 C7        -14.9567   -0.1733   58.4832 C.3     1  ZINC000409064708   -0.1600
      8 N8        -13.5236   -2.1530   58.3911 N.am    1  ZINC000409064708   -0.5600
      9 C9        -13.8728   -3.4432   58.3317 C.2     1  ZINC000409064708    0.5400
     10 O10       -14.7510   -3.9864   58.9744 O.2     1  ZINC000409064708   -0.4200
     11 S11       -12.8118   -4.2092   57.1365 S.3     1  ZINC000409064708   -0.0100
     12 C12       -11.9229   -2.7194   56.7611 C.2     1  ZINC000409064708   -0.2400
     13 C13       -10.9053   -2.5543   55.8785 C.2     1  ZINC000409064708    0.0900
     14 C14       -10.2911   -1.2318   55.7052 C.ar    1  ZINC000409064708   -0.1400
     15 C15       -10.5458   -0.4849   54.5484 C.ar    1  ZINC000409064708    0.0000
     16 C16        -9.9673    0.7544   54.3911 C.ar    1  ZINC000409064708   -0.1600
     17 C17        -9.1312    1.2643   55.3778 C.ar    1  ZINC000409064708    0.1600
     18 O18        -8.5634    2.4871   55.2176 O.3     1  ZINC000409064708   -0.3000
     19 C19        -7.1671    2.5962   55.5015 C.3     1  ZINC000409064708    0.1000
     20 C20        -6.3887    2.5707   54.2114 C.ar    1  ZINC000409064708   -0.0700
     21 C21        -5.0776    3.0076   54.1869 C.ar    1  ZINC000409064708   -0.1000
     22 C22        -4.3621    2.9849   53.0039 C.ar    1  ZINC000409064708   -0.0900
     23 C23        -4.9573    2.5250   51.8447 C.ar    1  ZINC000409064708   -0.1400
     24 C24        -6.2706    2.0865   51.8681 C.ar    1  ZINC000409064708    0.1000
     25 F25        -6.8535    1.6368   50.7354 F       1  ZINC000409064708   -0.1400
     26 C26        -6.9842    2.1050   53.0543 C.ar    1  ZINC000409064708   -0.1300
     27 C27        -8.8749    0.5272   56.5281 C.ar    1  ZINC000409064708   -0.2200
     28 C28        -9.4531   -0.7105   56.6987 C.ar    1  ZINC000409064708   -0.0400
     29 C29       -12.5456   -1.7064   57.6209 C.2     1  ZINC000409064708    0.5600
     30 O30       -12.1846   -0.5442   57.6295 O.2     1  ZINC000409064708   -0.4600
     31 H31       -10.7243    0.3044   59.8879 H       1  ZINC000409064708    0.0700
     32 H32       -11.1321    0.3015   61.6204 H       1  ZINC000409064708    0.0700
     33 H33       -10.0426   -0.9417   60.9606 H       1  ZINC000409064708    0.1100
     34 H34       -15.4775    0.5058   59.1583 H       1  ZINC000409064708    0.1000
     35 H35       -14.2364    0.3879   57.8879 H       1  ZINC000409064708    0.0800
     36 H36       -15.6786   -0.6531   57.8225 H       1  ZINC000409064708    0.0800
     37 H37       -10.5473   -3.3955   55.3035 H       1  ZINC000409064708    0.1600
     38 H38       -11.1945   -0.8804   53.7809 H       1  ZINC000409064708    0.1300
     39 H39       -10.1630    1.3314   53.4994 H       1  ZINC000409064708    0.1400
     40 H40        -6.9747    3.5334   56.0235 H       1  ZINC000409064708    0.0800
     41 H41        -6.8576    1.7605   56.1291 H       1  ZINC000409064708    0.0800
     42 H42        -4.6118    3.3675   55.0923 H       1  ZINC000409064708    0.1300
     43 H43        -3.3379    3.3268   52.9858 H       1  ZINC000409064708    0.1400
     44 H44        -4.3985    2.5080   50.9206 H       1  ZINC000409064708    0.1400
     45 H45        -8.0085    1.7629   53.0738 H       1  ZINC000409064708    0.1400
     46 H46        -8.2244    0.9280   57.2914 H       1  ZINC000409064708    0.1300
     47 H47        -9.2534   -1.2824   57.5928 H       1  ZINC000409064708    0.1300
@<TRIPOS>BOND
     1     1     2    1
     2     1    31    1
     3     1    32    1
     4     1    33    1
     5     2     3    1
     6     3     4    2
     7     3     5    1
     8     5     6    1
     9     5     7    1
    10     5     8    1
    11     7    34    1
    12     7    35    1
    13     7    36    1
    14     8    29   am
    15     8     9   am
    16     9    10    2
    17     9    11    1
    18    11    12    1
    19    12    13    2
    20    12    29    1
    21    13    14    1
    22    13    37    1
    23    14    28   ar
    24    14    15   ar
    25    15    16   ar
    26    15    38    1
    27    16    17   ar
    28    16    39    1
    29    17    18    1
    30    17    27   ar
    31    18    19    1
    32    19    20    1
    33    19    40    1
    34    19    41    1
    35    20    26   ar
    36    20    21   ar
    37    21    22   ar
    38    21    42    1
    39    22    23   ar
    40    22    43    1
    41    23    24   ar
    42    23    44    1
    43    24    25    1
    44    24    26   ar
    45    26    45    1
    46    27    28   ar
    47    27    46    1
    48    28    47    1
    49    29    30    2
@<TRIPOS>SUBSTRUCTURE
     1 ZINC000409064708        1 TEMP              0 ****  ****    0 ROOT


##########                                Name:    ZINC000342525234
##########                DOCK_Rotatable_Bonds:                   6
##########                         Heavy_Atoms:                  25
##########                    Molecular_Weight:             333.349
##########                DOCK_Rotatable_Bonds:                   6
##########                       Formal_Charge:           0.0500003
##########                     HBond_Acceptors:                   7
##########                        HBond_Donors:                   2
##########                         Heavy_Atoms:                  25
##########                          Grid_Score:          -28.528887
##########                     Grid_vdw_energy:          -28.585926
##########                      Grid_es_energy:            0.057040
##########           Internal_energy_repulsive:            2.788222

@<TRIPOS>MOLECULE
ZINC000342525234
 40 43 1 0 0
SMALL
USER_CHARGES


@<TRIPOS>ATOM
      1 O1         -7.5637    3.2263   59.0057 O.2     1  <0>        -0.5100
      2 C2         -8.0927    2.2111   58.5987 C.2     1  <0>         0.6000
      3 N3         -8.8655    1.4768   59.4233 N.am    1  <0>        -0.7100
      4 C4         -9.0628    1.8994   60.8121 C.3     1  <0>         0.1200
      5 C5         -9.8812    0.8419   61.5557 C.3     1  <0>        -0.0900
      6 C6         -9.4967    0.8422   63.0128 C.ar    1  <0>        -0.0400
      7 C7         -8.5061    0.0167   63.4336 C.ar    1  <0>        -0.1000
      8 C8         -8.1374    0.0085   64.7962 C.ar    1  <0>         0.1100
      9 N9         -7.2458   -0.6514   65.5128 N.2     1  <0>        -0.3100
     10 N10        -7.3366   -0.2361   66.8462 N.pl3   1  <0>        -0.4200
     11 C11        -8.2935    0.6935   66.9714 C.2     1  <0>         0.0900
     12 C12        -8.8473    0.9043   65.7224 C.ar    1  <0>        -0.2100
     13 C13        -9.8678    1.7363   65.2144 C.ar    1  <0>        -0.0400
     14 C14       -10.1664    1.6967   63.8916 C.ar    1  <0>        -0.1500
     15 C15        -7.8930    1.7831   57.1925 C.2     1  <0>        -0.0200
     16 N16        -8.4204    0.7358   56.6073 N.2     1  <0>        -0.3200
     17 O17        -8.0734    0.6452   55.4530 O.3     1  <0>         0.1400
     18 C18        -7.2459    1.6452   55.1015 C.2     1  <0>         0.0100
     19 C19        -6.6252    1.8574   53.7760 C.ar    1  <0>         0.0200
     20 C20        -5.5549    2.7452   53.6169 C.ar    1  <0>        -0.1400
     21 C21        -5.0057    2.9124   52.3624 C.ar    1  <0>         0.1100
     22 N22        -5.4760    2.2500   51.3230 N.ar    1  <0>        -0.4800
     23 C23        -6.4829    1.4041   51.4291 C.ar    1  <0>         0.1100
     24 C24        -7.0879    1.1719   52.6470 C.ar    1  <0>        -0.1500
     25 C25        -7.0972    2.4299   56.2105 C.2     1  <0>        -0.1500
     26 H26        -9.2910    0.6683   59.0972 H       1  <0>         0.4100
     27 H27        -8.0939    2.0166   61.2973 H       1  <0>         0.0800
     28 H28        -9.5956    2.8501   60.8302 H       1  <0>         0.0800
     29 H29       -10.9426    1.0703   61.4599 H       1  <0>         0.0900
     30 H30        -9.6806   -0.1402   61.1271 H       1  <0>         0.0800
     31 H31        -8.0028   -0.6304   62.7307 H       1  <0>         0.1300
     32 H32        -6.7882   -0.5717   67.5724 H       1  <0>         0.4500
     33 H33        -8.5814    1.1899   67.8863 H       1  <0>         0.1900
     34 H34       -10.4043    2.4032   65.8732 H       1  <0>         0.1300
     35 H35       -10.9483    2.3364   63.5097 H       1  <0>         0.1200
     36 H36        -5.1652    3.2913   54.4632 H       1  <0>         0.1400
     37 H37        -4.1795    3.5952   52.2294 H       1  <0>         0.1700
     38 H38        -6.8356    0.8833   50.5512 H       1  <0>         0.1700
     39 H39        -7.9117    0.4779   52.7264 H       1  <0>         0.1500
     40 H40        -6.5072    3.3282   56.3170 H       1  <0>         0.1900
@<TRIPOS>BOND
     1     1     2    2
     2     2     3   am
     3     2    15    1
     4     3     4    1
     5     3    26    1
     6     4     5    1
     7     4    27    1
     8     4    28    1
     9     5     6    1
    10     5    29    1
    11     5    30    1
    12     6    14   ar
    13     6     7   ar
    14     7     8   ar
    15     7    31    1
    16     8    12   ar
    17     8     9    2
    18     9    10    1
    19    10    11    1
    20    10    32    1
    21    11    12    2
    22    11    33    1
    23    12    13   ar
    24    13    14   ar
    25    13    34    1
    26    14    35    1
    27    15    25    1
    28    15    16    2
    29    16    17    1
    30    17    18    1
    31    18    19    1
    32    18    25    2
    33    19    24   ar
    34    19    20   ar
    35    20    21   ar
    36    20    36    1
    37    21    22   ar
    38    21    37    1
    39    22    23   ar
    40    23    24   ar
    41    23    38    1
    42    24    39    1
    43    25    40    1
@<TRIPOS>SUBSTRUCTURE
     1 <0>         1 TEMP              0 ****  ****    0 ROOT


##########                                Name:    ZINC001078110631
##########                DOCK_Rotatable_Bonds:                   7
##########                         Heavy_Atoms:                  25
##########                    Molecular_Weight:             353.369
##########                DOCK_Rotatable_Bonds:                   7
##########                       Formal_Charge:           0.0100006
##########                     HBond_Acceptors:                   8
##########                        HBond_Donors:                   2
##########                         Heavy_Atoms:                  25
##########                          Grid_Score:          -28.524988
##########                     Grid_vdw_energy:          -26.856136
##########                      Grid_es_energy:           -1.668852
##########           Internal_energy_repulsive:            8.605160

@<TRIPOS>MOLECULE
ZINC001078110631
 46 48 1 0 0
SMALL
USER_CHARGES


@<TRIPOS>ATOM
      1 O1        -11.0473   -0.4655   54.6415 O.2     1  ZINC001078110631   -0.5100
      2 C2         -9.9104   -0.4667   55.0727 C.2     1  ZINC001078110631    0.5600
      3 N3         -9.6192   -1.1403   56.2032 N.am    1  ZINC001078110631   -0.7200
      4 C4        -10.6737   -1.8661   56.9157 C.3     1  ZINC001078110631    0.1500
      5 H5        -11.1542   -2.5837   56.2507 H       1  ZINC001078110631    0.1200
      6 C6        -11.7161   -0.8780   57.4816 C.3     1  ZINC001078110631    0.0300
      7 N7        -12.1037   -1.4543   58.7949 N.3     1  ZINC001078110631   -0.5000
      8 C8        -12.6888   -0.4280   59.6681 C.3     1  ZINC001078110631    0.0300
      9 C9        -14.0576   -0.0150   59.1235 C.3     1  ZINC001078110631    0.1300
     10 N10       -14.8773   -1.2097   58.9059 N.am    1  ZINC001078110631   -0.6200
     11 C11       -15.2101   -1.7561   57.5850 C.3     1  ZINC001078110631    0.1000
     12 C12       -15.6896   -3.2013   57.8459 C.3     1  ZINC001078110631   -0.1300
     13 C13       -16.1931   -3.1079   59.3049 C.3     1  ZINC001078110631   -0.1600
     14 C14       -15.4163   -1.9493   59.8903 C.2     1  ZINC001078110631    0.5200
     15 O15       -15.3025   -1.7172   61.0753 O.2     1  ZINC001078110631   -0.5200
     16 C16       -10.8289   -1.9688   59.3582 C.3     1  ZINC001078110631    0.0000
     17 C17       -10.0895   -2.5859   58.1487 C.3     1  ZINC001078110631    0.1000
     18 H18        -9.0184   -2.3985   58.2240 H       1  ZINC001078110631    0.0700
     19 O19       -10.3430   -3.9904   58.0758 O.3     1  ZINC001078110631   -0.5500
     20 C20        -8.8482    0.2644   54.3550 C.ar    1  ZINC001078110631   -0.1900
     21 C21        -8.1928    1.3329   54.9713 C.ar    1  ZINC001078110631   -0.0300
     22 C22        -7.2018    2.0122   54.2968 C.ar    1  ZINC001078110631   -0.1700
     23 C23        -6.8532    1.6379   53.0073 C.ar    1  ZINC001078110631    0.1600
     24 F24        -5.8806    2.3086   52.3521 F       1  ZINC001078110631   -0.1200
     25 C25        -7.4978    0.5791   52.3887 C.ar    1  ZINC001078110631   -0.2000
     26 C26        -8.4896   -0.1135   53.0562 C.ar    1  ZINC001078110631    0.2000
     27 F27        -9.1182   -1.1460   52.4530 F       1  ZINC001078110631   -0.1000
     28 H28        -8.7114   -1.1447   56.5449 H       1  ZINC001078110631    0.4000
     29 H29       -11.2716    0.1082   57.6156 H       1  ZINC001078110631    0.0500
     30 H30       -12.5817   -0.8195   56.8218 H       1  ZINC001078110631    0.1000
     31 H31       -12.8044   -0.8301   60.6746 H       1  ZINC001078110631    0.0400
     32 H32       -12.0321    0.4414   59.6975 H       1  ZINC001078110631    0.0800
     33 H33       -14.5522    0.6391   59.8416 H       1  ZINC001078110631    0.0900
     34 H34       -13.9285    0.5139   58.1793 H       1  ZINC001078110631    0.0800
     35 H35       -16.0068   -1.1716   57.1249 H       1  ZINC001078110631    0.0700
     36 H36       -14.3274   -1.7612   56.9456 H       1  ZINC001078110631    0.0800
     37 H37       -16.5009   -3.4710   57.1698 H       1  ZINC001078110631    0.0900
     38 H38       -14.8634   -3.9073   57.7628 H       1  ZINC001078110631    0.0800
     39 H39       -17.2637   -2.9042   59.3267 H       1  ZINC001078110631    0.1100
     40 H40       -15.9676   -4.0269   59.8459 H       1  ZINC001078110631    0.1000
     41 H41       -10.2457   -1.1534   59.7857 H       1  ZINC001078110631    0.0600
     42 H42       -11.0266   -2.7317   60.1113 H       1  ZINC001078110631    0.0900
     43 H43       -10.2428   -4.4524   58.9193 H       1  ZINC001078110631    0.3800
     44 H44        -8.4625    1.6264   55.9750 H       1  ZINC001078110631    0.1500
     45 H45        -6.6953    2.8384   54.7732 H       1  ZINC001078110631    0.1500
     46 H46        -7.2222    0.2923   51.3846 H       1  ZINC001078110631    0.1600
@<TRIPOS>BOND
     1     1     2    2
     2     2     3   am
     3     2    20    1
     4     3     4    1
     5     3    28    1
     6     4     5    1
     7     4    17    1
     8     4     6    1
     9     6     7    1
    10     6    29    1
    11     6    30    1
    12     7     8    1
    13     7    16    1
    14     8     9    1
    15     8    31    1
    16     8    32    1
    17     9    10    1
    18     9    33    1
    19     9    34    1
    20    10    14   am
    21    10    11    1
    22    11    12    1
    23    11    35    1
    24    11    36    1
    25    12    13    1
    26    12    37    1
    27    12    38    1
    28    13    14    1
    29    13    39    1
    30    13    40    1
    31    14    15    2
    32    16    17    1
    33    16    41    1
    34    16    42    1
    35    17    18    1
    36    17    19    1
    37    19    43    1
    38    20    26   ar
    39    20    21   ar
    40    21    22   ar
    41    21    44    1
    42    22    23   ar
    43    22    45    1
    44    23    24    1
    45    23    25   ar
    46    25    26   ar
    47    25    46    1
    48    26    27    1
@<TRIPOS>SUBSTRUCTURE
     1 ZINC001078110631        1 TEMP              0 ****  ****    0 ROOT


##########                                Name:    ZINC000440379747
##########                DOCK_Rotatable_Bonds:                   8
##########                         Heavy_Atoms:                  27
##########                    Molecular_Weight:             394.452
##########                DOCK_Rotatable_Bonds:                   8
##########                       Formal_Charge:           0.0199995
##########                     HBond_Acceptors:                  10
##########                        HBond_Donors:                   3
##########                         Heavy_Atoms:                  27
##########                          Grid_Score:          -28.498734
##########                     Grid_vdw_energy:          -27.635744
##########                      Grid_es_energy:           -0.862989
##########           Internal_energy_repulsive:           22.165119

@<TRIPOS>MOLECULE
ZINC000440379747
 49 51 1 0 0
SMALL
USER_CHARGES


@<TRIPOS>ATOM
      1 C1         -8.3318    0.1888   67.0273 C.3     1  ZINC000440379747   -0.1800
      2 C2         -8.4894    0.0391   65.5361 C.2     1  ZINC000440379747    0.5200
      3 O3         -8.0078   -0.9187   64.9686 O.2     1  ZINC000440379747   -0.5200
      4 N4         -9.1653    0.9693   64.8331 N.am    1  ZINC000440379747   -0.5500
      5 C5         -9.7892    2.1654   65.4051 C.3     1  ZINC000440379747    0.1100
      6 C6        -10.4263    2.8977   64.2129 C.3     1  ZINC000440379747   -0.0900
      7 C7        -10.1037    2.0311   63.0164 C.ar    1  ZINC000440379747   -0.1100
      8 C8        -10.4158    2.1826   61.6801 C.ar    1  ZINC000440379747   -0.0700
      9 C9         -9.9986    1.2336   60.7554 C.ar    1  ZINC000440379747    0.1200
     10 N10       -10.3134    1.3857   59.4016 N.am    1  ZINC000440379747   -0.6400
     11 C11       -11.5831    1.2172   58.9819 C.2     1  ZINC000440379747    0.5100
     12 O12       -12.4532    0.9332   59.7793 O.2     1  ZINC000440379747   -0.4900
     13 C13       -11.9193    1.3797   57.5360 C.2     1  ZINC000440379747    0.5200
     14 O14       -12.5725    2.3343   57.1684 O.2     1  ZINC000440379747   -0.5100
     15 N15       -11.4975    0.4663   56.6393 N.am    1  ZINC000440379747   -0.5800
     16 C16       -11.7565    0.5032   55.1884 C.3     1  ZINC000440379747    0.1000
     17 C17       -10.6120   -0.3303   54.5600 C.3     1  ZINC000440379747   -0.1300
     18 C18       -10.4346   -1.4580   55.6107 C.3     1  ZINC000440379747   -0.1600
     19 C19       -10.6974   -0.7286   56.9451 C.3     1  ZINC000440379747    0.1500
     20 H20        -9.7509   -0.4400   57.4024 H       1  ZINC000440379747    0.1000
     21 C21       -11.4758   -1.6429   57.8933 C.3     1  ZINC000440379747   -0.6500
     22 S22       -10.3534   -2.8838   58.5940 S.o2    1  ZINC000440379747    2.6200
     23 N23       -10.2932   -4.0793   57.4497 N.am    1  ZINC000440379747   -1.2500
     24 O24        -9.0251   -2.3816   58.6465 O.2     1  ZINC000440379747   -0.9500
     25 O25       -10.9452   -3.5099   59.7240 O.2     1  ZINC000440379747   -0.9500
     26 C26        -9.2666    0.1327   61.1824 C.ar    1  ZINC000440379747   -0.1000
     27 C27        -8.9562   -0.0165   62.5164 C.ar    1  ZINC000440379747   -0.1400
     28 C28        -9.3687    0.9378   63.4486 C.ar    1  ZINC000440379747    0.1400
     29 H29        -7.7608   -0.6530   67.4187 H       1  ZINC000440379747    0.1000
     30 H30        -7.8053    1.1179   67.2456 H       1  ZINC000440379747    0.1000
     31 H31        -9.3156    0.2099   67.4963 H       1  ZINC000440379747    0.1000
     32 H32       -10.5543    1.8834   66.1284 H       1  ZINC000440379747    0.0900
     33 H33        -9.0357    2.7959   65.8771 H       1  ZINC000440379747    0.0900
     34 H34       -11.5054    2.9745   64.3468 H       1  ZINC000440379747    0.0900
     35 H35        -9.9856    3.8876   64.0954 H       1  ZINC000440379747    0.1000
     36 H36       -10.9854    3.0400   61.3533 H       1  ZINC000440379747    0.1400
     37 H37        -9.6181    1.6125   58.7644 H       1  ZINC000440379747    0.4200
     38 H38       -12.7226    0.0511   54.9639 H       1  ZINC000440379747    0.0800
     39 H39       -11.7231    1.5297   54.8232 H       1  ZINC000440379747    0.1000
     40 H40       -10.9110   -0.7392   53.5948 H       1  ZINC000440379747    0.1000
     41 H41        -9.7024    0.2630   54.4663 H       1  ZINC000440379747    0.0800
     42 H42       -11.1638   -2.2521   55.4511 H       1  ZINC000440379747    0.1000
     43 H43        -9.4194   -1.8540   55.5838 H       1  ZINC000440379747    0.1000
     44 H44       -11.9080   -1.0482   58.6981 H       1  ZINC000440379747    0.1500
     45 H45       -12.2726   -2.1431   57.3430 H       1  ZINC000440379747    0.1400
     46 H46        -9.9742   -3.8794   56.5556 H       1  ZINC000440379747    0.4100
     47 H47       -10.5769   -4.9795   57.6733 H       1  ZINC000440379747    0.4200
     48 H48        -8.9405   -0.6078   60.4672 H       1  ZINC000440379747    0.1400
     49 H49        -8.3872   -0.8745   62.8425 H       1  ZINC000440379747    0.1500
@<TRIPOS>BOND
     1     1     2    1
     2     1    29    1
     3     1    30    1
     4     1    31    1
     5     2     3    2
     6     2     4   am
     7     4    28    1
     8     4     5    1
     9     5     6    1
    10     5    32    1
    11     5    33    1
    12     6     7    1
    13     6    34    1
    14     6    35    1
    15     7    28   ar
    16     7     8   ar
    17     8     9   ar
    18     8    36    1
    19     9    10    1
    20     9    26   ar
    21    10    11   am
    22    10    37    1
    23    11    12    2
    24    11    13    1
    25    13    14    2
    26    13    15   am
    27    15    19    1
    28    15    16    1
    29    16    17    1
    30    16    38    1
    31    16    39    1
    32    17    18    1
    33    17    40    1
    34    17    41    1
    35    18    19    1
    36    18    42    1
    37    18    43    1
    38    19    20    1
    39    19    21    1
    40    21    22    1
    41    21    44    1
    42    21    45    1
    43    22    23   am
    44    22    24    2
    45    22    25    2
    46    23    46    1
    47    23    47    1
    48    26    27   ar
    49    26    48    1
    50    27    28   ar
    51    27    49    1
@<TRIPOS>SUBSTRUCTURE
     1 ZINC000440379747        1 TEMP              0 ****  ****    0 ROOT


##########                                Name:    ZINC001310073555
##########                DOCK_Rotatable_Bonds:                  12
##########                         Heavy_Atoms:                  27
##########                    Molecular_Weight:             380.484
##########                DOCK_Rotatable_Bonds:                  12
##########                       Formal_Charge:          0.00999888
##########                     HBond_Acceptors:                   7
##########                        HBond_Donors:                   2
##########                         Heavy_Atoms:                  27
##########                          Grid_Score:          -28.485268
##########                     Grid_vdw_energy:          -28.387014
##########                      Grid_es_energy:           -0.098253
##########           Internal_energy_repulsive:           42.020878

@<TRIPOS>MOLECULE
ZINC001310073555
 59 59 1 0 0
SMALL
USER_CHARGES


@<TRIPOS>ATOM
      1 C1        -14.1367    0.9212   59.2176 C.3     1  ZINC001310073555   -0.1600
      2 C2        -13.2560    0.6208   58.0030 C.3     1  ZINC001310073555   -0.1100
      3 C3        -12.6255   -0.7644   58.1603 C.3     1  ZINC001310073555   -0.0600
      4 C4        -13.7119   -1.7818   58.5144 C.3     1  ZINC001310073555   -0.1100
      5 C5        -13.1599   -3.1983   58.3414 C.3     1  ZINC001310073555   -0.1600
      6 C6        -11.9542   -1.1712   56.8471 C.3     1  ZINC001310073555    0.1600
      7 N7        -11.5347    0.0297   56.1205 N.am    1  ZINC001310073555   -0.7400
      8 C8        -10.3668    0.0368   55.4478 C.2     1  ZINC001310073555    0.7100
      9 O9         -9.6621   -0.9541   55.4427 O.2     1  ZINC001310073555   -0.5700
     10 N10        -9.9801    1.1422   54.7807 N.am    1  ZINC001310073555   -0.6700
     11 C11        -8.7638    1.1496   54.0800 C.ar    1  ZINC001310073555    0.1000
     12 C12        -8.6472    0.4564   52.8851 C.ar    1  ZINC001310073555   -0.0400
     13 C13        -7.4495    0.4635   52.1950 C.ar    1  ZINC001310073555   -0.2200
     14 C14        -6.3624    1.1642   52.6956 C.ar    1  ZINC001310073555    0.1500
     15 O15        -5.1857    1.1694   52.0144 O.3     1  ZINC001310073555   -0.3200
     16 C16        -4.5594    2.4376   51.8110 C.3     1  ZINC001310073555    0.0300
     17 C17        -6.4746    1.8601   53.8903 C.ar    1  ZINC001310073555   -0.2300
     18 C18        -7.6744    1.8583   54.5816 C.ar    1  ZINC001310073555    0.1400
     19 O19        -7.7864    2.5399   55.7530 O.3     1  ZINC001310073555   -0.3100
     20 C20        -7.8988    3.9619   55.6680 C.3     1  ZINC001310073555    0.0300
     21 C21       -11.5959   -0.7257   59.2600 C.2     1  ZINC001310073555    0.4800
     22 O22       -11.8134   -1.2809   60.3109 O.2     1  ZINC001310073555   -0.5000
     23 O23       -10.4372   -0.0747   59.0722 O.3     1  ZINC001310073555   -0.3400
     24 C24        -9.2275   -0.7378   59.5252 C.3     1  ZINC001310073555    0.1200
     25 C25        -9.0855   -0.5615   61.0383 C.3     1  ZINC001310073555   -0.1800
     26 C26        -9.3073   -2.2286   59.1906 C.3     1  ZINC001310073555   -0.1400
     27 C27        -8.0152   -0.1219   58.8239 C.3     1  ZINC001310073555   -0.1800
     28 H28       -14.5858    1.9081   59.1055 H       1  ZINC001310073555    0.0600
     29 H29       -14.9233    0.1702   59.2906 H       1  ZINC001310073555    0.0500
     30 H30       -13.5284    0.8993   60.1218 H       1  ZINC001310073555    0.0600
     31 H31       -13.8642    0.6428   57.0988 H       1  ZINC001310073555    0.0800
     32 H32       -12.4693    1.3719   57.9301 H       1  ZINC001310073555    0.0800
     33 H33       -14.0224   -1.6367   59.5491 H       1  ZINC001310073555    0.0800
     34 H34       -14.5687   -1.6428   57.8550 H       1  ZINC001310073555    0.0800
     35 H35       -12.8495   -3.3434   57.3067 H       1  ZINC001310073555    0.0600
     36 H36       -12.3031   -3.3374   59.0008 H       1  ZINC001310073555    0.0500
     37 H37       -13.9338   -3.9231   58.5936 H       1  ZINC001310073555    0.0600
     38 H38       -11.0825   -1.7895   57.0610 H       1  ZINC001310073555    0.0800
     39 H39       -12.6599   -1.7364   56.2382 H       1  ZINC001310073555    0.0800
     40 H40       -12.0975    0.8198   56.1236 H       1  ZINC001310073555    0.4000
     41 H41       -10.5422    1.9327   54.7848 H       1  ZINC001310073555    0.4100
     42 H42        -9.4925   -0.0900   52.4934 H       1  ZINC001310073555    0.1500
     43 H43        -7.3600   -0.0776   51.2646 H       1  ZINC001310073555    0.1300
     44 H44        -5.2281    3.0864   51.2453 H       1  ZINC001310073555    0.0600
     45 H45        -4.3410    2.8940   52.7764 H       1  ZINC001310073555    0.0600
     46 H46        -3.6315    2.2997   51.2560 H       1  ZINC001310073555    0.1000
     47 H47        -5.6276    2.4054   54.2795 H       1  ZINC001310073555    0.1400
     48 H48        -7.9812    4.3805   56.6709 H       1  ZINC001310073555    0.1000
     49 H49        -7.0145    4.3675   55.1765 H       1  ZINC001310073555    0.0600
     50 H50        -8.7865    4.2224   55.0915 H       1  ZINC001310073555    0.0600
     51 H51        -9.9491   -1.0002   61.5379 H       1  ZINC001310073555    0.0600
     52 H52        -8.1773   -1.0592   61.3784 H       1  ZINC001310073555    0.0700
     53 H53        -9.0286    0.5007   61.2766 H       1  ZINC001310073555    0.0800
     54 H54        -9.4085   -2.3542   58.1127 H       1  ZINC001310073555    0.0700
     55 H55        -8.3992   -2.7264   59.5308 H       1  ZINC001310073555    0.0800
     56 H56       -10.1709   -2.6674   59.6903 H       1  ZINC001310073555    0.0700
     57 H57        -7.9584    0.9403   59.0622 H       1  ZINC001310073555    0.0800
     58 H58        -7.1071   -0.6196   59.1639 H       1  ZINC001310073555    0.0700
     59 H59        -8.1164   -0.2475   57.7459 H       1  ZINC001310073555    0.0600
@<TRIPOS>BOND
     1     1     2    1
     2     1    28    1
     3     1    29    1
     4     1    30    1
     5     2     3    1
     6     2    31    1
     7     2    32    1
     8     3     4    1
     9     3     6    1
    10     3    21    1
    11     4     5    1
    12     4    33    1
    13     4    34    1
    14     5    35    1
    15     5    36    1
    16     5    37    1
    17     6     7    1
    18     6    38    1
    19     6    39    1
    20     7     8   am
    21     7    40    1
    22     8     9    2
    23     8    10   am
    24    10    11    1
    25    10    41    1
    26    11    18   ar
    27    11    12   ar
    28    12    13   ar
    29    12    42    1
    30    13    14   ar
    31    13    43    1
    32    14    15    1
    33    14    17   ar
    34    15    16    1
    35    16    44    1
    36    16    45    1
    37    16    46    1
    38    17    18   ar
    39    17    47    1
    40    18    19    1
    41    19    20    1
    42    20    48    1
    43    20    49    1
    44    20    50    1
    45    21    22    2
    46    21    23    1
    47    23    24    1
    48    24    25    1
    49    24    26    1
    50    24    27    1
    51    25    51    1
    52    25    52    1
    53    25    53    1
    54    26    54    1
    55    26    55    1
    56    26    56    1
    57    27    57    1
    58    27    58    1
    59    27    59    1
@<TRIPOS>SUBSTRUCTURE
     1 ZINC001310073555        1 TEMP              0 ****  ****    0 ROOT


##########                                Name:    ZINC000945148121
##########                DOCK_Rotatable_Bonds:                   6
##########                         Heavy_Atoms:                  24
##########                    Molecular_Weight:             332.446
##########                DOCK_Rotatable_Bonds:                   6
##########                       Formal_Charge:           0.0100009
##########                     HBond_Acceptors:                   6
##########                        HBond_Donors:                   2
##########                         Heavy_Atoms:                  24
##########                          Grid_Score:          -28.481480
##########                     Grid_vdw_energy:          -24.381020
##########                      Grid_es_energy:           -4.100460
##########           Internal_energy_repulsive:           19.854662

@<TRIPOS>MOLECULE
ZINC000945148121
 52 54 1 0 0
SMALL
USER_CHARGES


@<TRIPOS>ATOM
      1 O1        -11.1250    0.7045   59.4051 O.2     1  ZINC000945148121   -0.5100
      2 C2        -10.6175   -0.3969   59.4243 C.2     1  ZINC000945148121    0.5200
      3 C3        -10.4072   -1.1069   60.7369 C.3     1  ZINC000945148121   -0.0500
      4 C4         -9.9534   -0.1155   61.7772 C.2     1  ZINC000945148121    0.0100
      5 C5         -8.6779    0.1329   62.1306 C.2     1  ZINC000945148121   -0.0500
      6 N6         -8.7165    1.0963   63.1021 N.pl3   1  ZINC000945148121   -0.5700
      7 C7        -10.0152    1.4035   63.3087 C.2     1  ZINC000945148121    0.1800
      8 N8        -10.7489    0.6784   62.5093 N.2     1  ZINC000945148121   -0.4700
      9 N9        -10.2467   -0.9883   58.2714 N.am    1  ZINC000945148121   -0.7300
     10 C10       -10.4511   -0.2981   56.9954 C.3     1  ZINC000945148121    0.1500
     11 C11        -9.2355    0.5803   56.6905 C.3     1  ZINC000945148121   -0.1400
     12 C12        -9.4676    1.3268   55.3730 C.3     1  ZINC000945148121    0.1100
     13 N13        -9.7831    0.3478   54.3239 N.am    1  ZINC000945148121   -0.6100
     14 C14        -9.0820    0.3245   53.1730 C.2     1  ZINC000945148121    0.5200
     15 O15        -9.3531   -0.4877   52.3142 O.2     1  ZINC000945148121   -0.5400
     16 C16        -7.9611    1.3077   52.9536 C.3     1  ZINC000945148121   -0.1000
     17 C17        -7.1575    0.8975   51.7494 C.3     1  ZINC000945148121   -0.1200
     18 C18        -5.6614    1.2348   51.8963 C.3     1  ZINC000945148121   -0.1200
     19 C19        -5.4203    2.6215   52.5229 C.3     1  ZINC000945148121   -0.1200
     20 C20        -6.3584    3.6676   51.9846 C.3     1  ZINC000945148121   -0.1200
     21 C21        -7.5734    3.7690   52.9293 C.3     1  ZINC000945148121   -0.1200
     22 C22        -8.5463    2.7116   52.6972 C.3     1  ZINC000945148121   -0.1000
     23 C23       -10.8771   -0.6059   54.5534 C.3     1  ZINC000945148121    0.1100
     24 C24       -10.6291   -1.3307   55.8800 C.3     1  ZINC000945148121   -0.1400
     25 H25       -11.3433   -1.5655   61.0560 H       1  ZINC000945148121    0.1000
     26 H26        -9.6475   -1.8789   60.6148 H       1  ZINC000945148121    0.1000
     27 H27        -7.7944   -0.3380   61.7255 H       1  ZINC000945148121    0.1800
     28 H28        -7.9535    1.4857   63.5571 H       1  ZINC000945148121    0.4200
     29 H29       -10.3851    2.1315   64.0155 H       1  ZINC000945148121    0.2100
     30 H30        -9.8445   -1.8708   58.2865 H       1  ZINC000945148121    0.4000
     31 H31       -11.3428    0.3256   57.0586 H       1  ZINC000945148121    0.0900
     32 H32        -9.0954    1.3002   57.4968 H       1  ZINC000945148121    0.0800
     33 H33        -8.3474   -0.0455   56.6023 H       1  ZINC000945148121    0.0700
     34 H34       -10.3006    2.0204   55.4879 H       1  ZINC000945148121    0.0700
     35 H35        -8.5666    1.8765   55.1008 H       1  ZINC000945148121    0.1000
     36 H36        -7.3193    1.3337   53.8342 H       1  ZINC000945148121    0.1000
     37 H37        -7.2640   -0.1775   51.6038 H       1  ZINC000945148121    0.0700
     38 H38        -7.5502    1.4109   50.8717 H       1  ZINC000945148121    0.0700
     39 H39        -5.1905    0.4786   52.5244 H       1  ZINC000945148121    0.0600
     40 H40        -5.1968    1.2090   50.9107 H       1  ZINC000945148121    0.0700
     41 H41        -5.5549    2.5490   53.6022 H       1  ZINC000945148121    0.0600
     42 H42        -4.3948    2.9280   52.3172 H       1  ZINC000945148121    0.0600
     43 H43        -5.8477    4.6296   51.9405 H       1  ZINC000945148121    0.0600
     44 H44        -6.6927    3.3813   50.9874 H       1  ZINC000945148121    0.0700
     45 H45        -7.2250    3.7079   53.9603 H       1  ZINC000945148121    0.0600
     46 H46        -8.0579    4.7336   52.7789 H       1  ZINC000945148121    0.0600
     47 H47        -8.8890    2.7678   51.6641 H       1  ZINC000945148121    0.0700
     48 H48        -9.3988    2.8649   53.3589 H       1  ZINC000945148121    0.0700
     49 H49       -11.8250   -0.0698   54.6014 H       1  ZINC000945148121    0.0700
     50 H50       -10.9059   -1.3313   53.7404 H       1  ZINC000945148121    0.1000
     51 H51        -9.7279   -1.9384   55.7996 H       1  ZINC000945148121    0.0700
     52 H52       -11.4810   -1.9709   56.1095 H       1  ZINC000945148121    0.0800
@<TRIPOS>BOND
     1     1     2    2
     2     2     3    1
     3     2     9   am
     4     3     4    1
     5     3    25    1
     6     3    26    1
     7     4     8    1
     8     4     5    2
     9     5     6    1
    10     5    27    1
    11     6     7    1
    12     6    28    1
    13     7     8    2
    14     7    29    1
    15     9    10    1
    16     9    30    1
    17    10    24    1
    18    10    11    1
    19    10    31    1
    20    11    12    1
    21    11    32    1
    22    11    33    1
    23    12    13    1
    24    12    34    1
    25    12    35    1
    26    13    14   am
    27    13    23    1
    28    14    15    2
    29    14    16    1
    30    16    22    1
    31    16    17    1
    32    16    36    1
    33    17    18    1
    34    17    37    1
    35    17    38    1
    36    18    19    1
    37    18    39    1
    38    18    40    1
    39    19    20    1
    40    19    41    1
    41    19    42    1
    42    20    21    1
    43    20    43    1
    44    20    44    1
    45    21    22    1
    46    21    45    1
    47    21    46    1
    48    22    47    1
    49    22    48    1
    50    23    24    1
    51    23    49    1
    52    23    50    1
    53    24    51    1
    54    24    52    1
@<TRIPOS>SUBSTRUCTURE
     1 ZINC000945148121        1 TEMP              0 ****  ****    0 ROOT


##########                                Name:    ZINC000274267583
##########                DOCK_Rotatable_Bonds:                   5
##########                         Heavy_Atoms:                  24
##########                    Molecular_Weight:             349.407
##########                DOCK_Rotatable_Bonds:                   5
##########                       Formal_Charge:           0.0300001
##########                     HBond_Acceptors:                   7
##########                        HBond_Donors:                   1
##########                         Heavy_Atoms:                  24
##########                          Grid_Score:          -28.472813
##########                     Grid_vdw_energy:          -27.734777
##########                      Grid_es_energy:           -0.738036
##########           Internal_energy_repulsive:           12.687490

@<TRIPOS>MOLECULE
ZINC000274267583
 43 45 1 0 0
SMALL
USER_CHARGES


@<TRIPOS>ATOM
      1 C1        -10.3108    2.3347   64.9853 C.3     1  ZINC000274267583    0.0200
      2 O2         -9.3586    1.4232   64.4336 O.3     1  ZINC000274267583   -0.3100
      3 C3         -9.6918    0.8158   63.2643 C.ar    1  ZINC000274267583    0.1900
      4 C4         -8.8246   -0.0990   62.6848 C.ar    1  ZINC000274267583   -0.2300
      5 C5         -9.1658   -0.7154   61.4965 C.ar    1  ZINC000274267583    0.0300
      6 C6        -10.3701   -0.4209   60.8845 C.ar    1  ZINC000274267583   -0.7200
      7 S7        -10.8020   -1.2084   59.3686 S.o2    1  ZINC000274267583    2.7000
      8 O8        -10.8739   -2.6003   59.6456 O.2     1  ZINC000274267583   -0.9500
      9 O9        -11.8861   -0.4670   58.8260 O.2     1  ZINC000274267583   -0.9500
     10 N10        -9.5289   -1.0036   58.3297 N.am    1  ZINC000274267583   -1.1100
     11 C11        -9.0967    0.3460   57.9577 C.3     1  ZINC000274267583    0.2100
     12 H12        -9.8867    1.0582   58.1957 H       1  ZINC000274267583    0.1000
     13 C13        -7.8315    0.7089   58.7390 C.3     1  ZINC000274267583   -0.1800
     14 C14        -7.2363    1.9836   58.1274 C.3     1  ZINC000274267583    0.0600
     15 O15        -6.8218    1.6914   56.7922 O.3     1  ZINC000274267583   -0.3100
     16 C16        -7.7063    1.0580   55.9770 C.ar    1  ZINC000274267583    0.1100
     17 C17        -7.4818    1.0892   54.6048 C.ar    1  ZINC000274267583   -0.1100
     18 C18        -8.3526    0.4549   53.7424 C.ar    1  ZINC000274267583   -0.1600
     19 C19        -9.4564   -0.2172   54.2453 C.ar    1  ZINC000274267583    0.0900
     20 O20       -10.3152   -0.8458   53.3989 O.3     1  ZINC000274267583   -0.3200
     21 C21        -9.7418   -1.7173   52.4222 C.3     1  ZINC000274267583    0.0300
     22 C22        -9.6824   -0.2472   55.6122 C.ar    1  ZINC000274267583   -0.1000
     23 C23        -8.8096    0.3909   56.4782 C.ar    1  ZINC000274267583   -0.1400
     24 C24       -11.2363    0.4901   61.4602 C.ar    1  ZINC000274267583    0.0200
     25 C25       -10.9021    1.1053   62.6512 C.ar    1  ZINC000274267583   -0.1700
     26 H26       -10.4930    3.1429   64.2769 H       1  ZINC000274267583    0.0600
     27 H27       -11.2445    1.8085   65.1842 H       1  ZINC000274267583    0.0600
     28 H28        -9.9214    2.7479   65.9157 H       1  ZINC000274267583    0.1100
     29 H29        -7.8835   -0.3288   63.1621 H       1  ZINC000274267583    0.1400
     30 H30        -8.4910   -1.4276   61.0450 H       1  ZINC000274267583    0.1400
     31 H31        -9.0694   -1.7771   57.9671 H       1  ZINC000274267583    0.4200
     32 H32        -8.0835    0.8860   59.7845 H       1  ZINC000274267583    0.1000
     33 H33        -7.1095   -0.1046   58.6674 H       1  ZINC000274267583    0.0900
     34 H34        -7.9901    2.7708   58.1138 H       1  ZINC000274267583    0.0700
     35 H35        -6.3777    2.3068   58.7160 H       1  ZINC000274267583    0.1200
     36 H36        -6.6223    1.6125   54.2124 H       1  ZINC000274267583    0.1400
     37 H37        -8.1748    0.4822   52.6775 H       1  ZINC000274267583    0.1400
     38 H38        -9.0632   -1.1514   51.7839 H       1  ZINC000274267583    0.0600
     39 H39        -9.1904   -2.5125   52.9239 H       1  ZINC000274267583    0.0600
     40 H40       -10.5345   -2.1527   51.8138 H       1  ZINC000274267583    0.1000
     41 H41       -10.5422   -0.7704   56.0037 H       1  ZINC000274267583    0.1300
     42 H42       -12.1767    0.7182   60.9805 H       1  ZINC000274267583    0.1500
     43 H43       -11.5790    1.8168   63.1005 H       1  ZINC000274267583    0.1400
@<TRIPOS>BOND
     1     1     2    1
     2     1    26    1
     3     1    27    1
     4     1    28    1
     5     2     3    1
     6     3    25   ar
     7     3     4   ar
     8     4     5   ar
     9     4    29    1
    10     5     6   ar
    11     5    30    1
    12     6     7    1
    13     6    24   ar
    14     7     8    2
    15     7     9    2
    16     7    10   am
    17    10    11    1
    18    10    31    1
    19    11    12    1
    20    11    23    1
    21    11    13    1
    22    13    14    1
    23    13    32    1
    24    13    33    1
    25    14    15    1
    26    14    34    1
    27    14    35    1
    28    15    16    1
    29    16    23   ar
    30    16    17   ar
    31    17    18   ar
    32    17    36    1
    33    18    19   ar
    34    18    37    1
    35    19    20    1
    36    19    22   ar
    37    20    21    1
    38    21    38    1
    39    21    39    1
    40    21    40    1
    41    22    23   ar
    42    22    41    1
    43    24    25   ar
    44    24    42    1
    45    25    43    1
@<TRIPOS>SUBSTRUCTURE
     1 ZINC000274267583        1 TEMP              0 ****  ****    0 ROOT


##########                                Name:    ZINC000800038938
##########                DOCK_Rotatable_Bonds:                   6
##########                         Heavy_Atoms:                  25
##########                    Molecular_Weight:             386.274
##########                DOCK_Rotatable_Bonds:                   6
##########                       Formal_Charge:           0.0200003
##########                     HBond_Acceptors:                   7
##########                        HBond_Donors:                   0
##########                         Heavy_Atoms:                  25
##########                          Grid_Score:          -28.460236
##########                     Grid_vdw_energy:          -28.141033
##########                      Grid_es_energy:           -0.319203
##########           Internal_energy_repulsive:           10.323347

@<TRIPOS>MOLECULE
ZINC000800038938
 46 48 1 0 0
SMALL
USER_CHARGES


@<TRIPOS>ATOM
      1 C1         -6.4742    1.0777   51.9189 C.3     1  ZINC000800038938    0.0300
      2 O2         -7.4563    0.0919   52.2441 O.3     1  ZINC000800038938   -0.3800
      3 C3         -8.5632    0.5989   52.9923 C.3     1  ZINC000800038938    0.0900
      4 H4         -9.0745    1.3749   52.4225 H       1  ZINC000800038938    0.0700
      5 C5         -8.0737    1.1685   54.3397 C.3     1  ZINC000800038938   -0.1400
      6 C6         -9.1915    0.7872   55.3418 C.3     1  ZINC000800038938   -0.1400
      7 C7         -9.6107   -0.6256   54.8650 C.3     1  ZINC000800038938    0.0900
      8 H8         -8.9144   -1.3764   55.2383 H       1  ZINC000800038938    0.0900
      9 O9        -10.9629   -0.9279   55.2989 O.3     1  ZINC000800038938   -0.3500
     10 C10       -11.0965   -1.6034   56.4512 C.2     1  ZINC000800038938    0.4500
     11 O11       -10.2509   -2.3984   56.7869 O.2     1  ZINC000800038938   -0.4800
     12 C12       -12.3012   -1.3702   57.3260 C.3     1  ZINC000800038938    0.1500
     13 H13       -12.9255   -0.5870   56.8959 H       1  ZINC000800038938    0.1200
     14 C14       -13.1139   -2.6754   57.4590 C.3     1  ZINC000800038938   -0.1200
     15 C15       -13.5751   -2.6482   58.9402 C.3     1  ZINC000800038938   -0.1300
     16 C16       -12.3530   -1.9971   59.6346 C.3     1  ZINC000800038938    0.0900
     17 N17       -11.8704   -0.9809   58.6767 N.am    1  ZINC000800038938   -0.6000
     18 C18       -11.1531    0.1162   58.9904 C.2     1  ZINC000800038938    0.5800
     19 O19       -10.8082    0.8872   58.1162 O.2     1  ZINC000800038938   -0.4900
     20 C20       -10.7858    0.3816   60.3970 C.ar    1  ZINC000800038938   -0.1100
     21 C21       -11.6645    1.0728   61.2325 C.ar    1  ZINC000800038938   -0.0700
     22 C22       -11.3150    1.3173   62.5455 C.ar    1  ZINC000800038938   -0.0400
     23 Cl23      -12.4067    2.1765   63.5866 Cl      1  ZINC000800038938   -0.0500
     24 C24       -10.0957    0.8786   63.0343 C.ar    1  ZINC000800038938   -0.0700
     25 C25        -9.2201    0.1934   62.2118 C.ar    1  ZINC000800038938   -0.1000
     26 C26        -9.5596   -0.0635   60.8980 C.ar    1  ZINC000800038938    0.0100
     27 Cl27       -8.4591   -0.9237   59.8671 Cl      1  ZINC000800038938   -0.0300
     28 C28        -9.5411   -0.5415   53.3252 C.3     1  ZINC000800038938   -0.1200
     29 H29        -5.6676    0.6136   51.3513 H       1  ZINC000800038938    0.0900
     30 H30        -6.9335    1.8646   51.3206 H       1  ZINC000800038938    0.0400
     31 H31        -6.0724    1.5069   52.8368 H       1  ZINC000800038938    0.0400
     32 H32        -7.1291    0.7074   54.6282 H       1  ZINC000800038938    0.0800
     33 H33        -7.9680    2.2518   54.2802 H       1  ZINC000800038938    0.0800
     34 H34        -8.8024    0.7518   56.3595 H       1  ZINC000800038938    0.0800
     35 H35       -10.0276    1.4828   55.2709 H       1  ZINC000800038938    0.0800
     36 H36       -13.9724   -2.6653   56.7875 H       1  ZINC000800038938    0.1000
     37 H37       -12.4832   -3.5435   57.2673 H       1  ZINC000800038938    0.0900
     38 H38       -14.4667   -2.0327   59.0606 H       1  ZINC000800038938    0.0900
     39 H39       -13.7455   -3.6574   59.3149 H       1  ZINC000800038938    0.1000
     40 H40       -12.6553   -1.5230   60.5683 H       1  ZINC000800038938    0.0900
     41 H41       -11.5799   -2.7429   59.8197 H       1  ZINC000800038938    0.0800
     42 H42       -12.6154    1.4159   60.8527 H       1  ZINC000800038938    0.1500
     43 H43        -9.8274    1.0725   64.0622 H       1  ZINC000800038938    0.1500
     44 H44        -8.2706   -0.1458   62.5992 H       1  ZINC000800038938    0.1500
     45 H45       -10.5277   -0.3195   52.9184 H       1  ZINC000800038938    0.0900
     46 H46        -9.1712   -1.4818   52.9163 H       1  ZINC000800038938    0.0900
@<TRIPOS>BOND
     1     1     2    1
     2     1    29    1
     3     1    30    1
     4     1    31    1
     5     2     3    1
     6     3     4    1
     7     3    28    1
     8     3     5    1
     9     5     6    1
    10     5    32    1
    11     5    33    1
    12     6     7    1
    13     6    34    1
    14     6    35    1
    15     7     8    1
    16     7     9    1
    17     7    28    1
    18     9    10    1
    19    10    11    2
    20    10    12    1
    21    12    13    1
    22    12    17    1
    23    12    14    1
    24    14    15    1
    25    14    36    1
    26    14    37    1
    27    15    16    1
    28    15    38    1
    29    15    39    1
    30    16    17    1
    31    16    40    1
    32    16    41    1
    33    17    18   am
    34    18    19    2
    35    18    20    1
    36    20    26   ar
    37    20    21   ar
    38    21    22   ar
    39    21    42    1
    40    22    23    1
    41    22    24   ar
    42    24    25   ar
    43    24    43    1
    44    25    26   ar
    45    25    44    1
    46    26    27    1
    47    28    45    1
    48    28    46    1
@<TRIPOS>SUBSTRUCTURE
     1 ZINC000800038938        1 TEMP              0 ****  ****    0 ROOT


##########                                Name:    ZINC000626935317
##########                DOCK_Rotatable_Bonds:                   6
##########                         Heavy_Atoms:                  25
##########                    Molecular_Weight:             366.441
##########                DOCK_Rotatable_Bonds:                   6
##########                       Formal_Charge:          -0.0200006
##########                     HBond_Acceptors:                   9
##########                        HBond_Donors:                   2
##########                         Heavy_Atoms:                  25
##########                          Grid_Score:          -28.456387
##########                     Grid_vdw_energy:          -28.244339
##########                      Grid_es_energy:           -0.212048
##########           Internal_energy_repulsive:           13.270123

@<TRIPOS>MOLECULE
ZINC000626935317
 47 49 1 0 0
SMALL
USER_CHARGES


@<TRIPOS>ATOM
      1 C1         -9.2863    3.6671   52.5262 C.3     1  ZINC000626935317    0.0900
      2 N2         -9.2587    2.6199   53.5503 N.am    1  ZINC000626935317   -0.6200
      3 C3        -10.2935    1.8111   53.8362 C.2     1  ZINC000626935317    0.5200
      4 O4        -11.3763    1.8495   53.2912 O.2     1  ZINC000626935317   -0.5200
      5 C5         -9.9110    0.8458   54.9364 C.3     1  ZINC000626935317   -0.1500
      6 C6         -8.3670    0.9154   54.9819 C.3     1  ZINC000626935317   -0.1200
      7 H7         -7.9229    0.1403   54.3575 H       1  ZINC000626935317    0.1200
      8 C8         -7.8643    0.8162   56.3992 C.2     1  ZINC000626935317    0.5300
      9 O9         -6.8528    1.4000   56.7262 O.2     1  ZINC000626935317   -0.5200
     10 N10        -8.5388    0.0785   57.3033 N.am    1  ZINC000626935317   -0.7100
     11 C11        -8.0492   -0.0195   58.6806 C.3     1  ZINC000626935317    0.1200
     12 C12        -8.9928    0.6141   59.7164 C.3     1  ZINC000626935317   -0.1600
     13 C13        -9.6845   -0.7563   59.8084 C.3     1  ZINC000626935317    0.1200
     14 N14       -10.7750   -0.9291   58.8455 N.am    1  ZINC000626935317   -1.1100
     15 S15       -11.5676   -2.3795   58.7435 S.o2    1  ZINC000626935317    2.6100
     16 C16       -12.8087   -2.1267   57.4449 C.3     1  ZINC000626935317   -0.6700
     17 O17       -10.5704   -3.2939   58.3091 O.2     1  ZINC000626935317   -0.9500
     18 O18       -12.1942   -2.5262   60.0104 O.2     1  ZINC000626935317   -0.9500
     19 C19        -8.3525   -1.3716   59.3475 C.3     1  ZINC000626935317   -0.1600
     20 C20        -8.0955    2.3150   54.3917 C.3     1  ZINC000626935317    0.2000
     21 H21        -8.0122    3.0517   55.1908 H       1  ZINC000626935317    0.1100
     22 C22        -6.8349    2.2973   53.5662 C.ar    1  ZINC000626935317   -0.1600
     23 C23        -5.7992    3.1749   53.8476 C.ar    1  ZINC000626935317   -0.0500
     24 C24        -4.6579    3.1224   53.0617 C.ar    1  ZINC000626935317   -0.1700
     25 C25        -4.5911    2.2038   52.0317 C.ar    1  ZINC000626935317    0.1000
     26 N26        -5.5961    1.3838   51.7928 N.ar    1  ZINC000626935317   -0.4800
     27 C27        -6.6942    1.4020   52.5226 C.ar    1  ZINC000626935317    0.1200
     28 H28        -8.9639    3.2506   51.5719 H       1  ZINC000626935317    0.0600
     29 H29       -10.3007    4.0542   52.4295 H       1  ZINC000626935317    0.0800
     30 H30        -8.6149    4.4757   52.8151 H       1  ZINC000626935317    0.0700
     31 H31       -10.3356    1.1645   55.8882 H       1  ZINC000626935317    0.1100
     32 H32       -10.2402   -0.1636   54.6897 H       1  ZINC000626935317    0.1200
     33 H33        -9.3485   -0.3876   57.0421 H       1  ZINC000626935317    0.4000
     34 H34        -7.0107    0.2951   58.7841 H       1  ZINC000626935317    0.1100
     35 H35        -8.4926    0.9133   60.6374 H       1  ZINC000626935317    0.1100
     36 H36        -9.6293    1.3978   59.3054 H       1  ZINC000626935317    0.0800
     37 H37        -9.9678   -1.0352   60.8232 H       1  ZINC000626935317    0.1100
     38 H38       -11.0328   -0.1938   58.2675 H       1  ZINC000626935317    0.4100
     39 H39       -12.3098   -1.8691   56.5107 H       1  ZINC000626935317    0.1300
     40 H40       -13.3841   -3.0425   57.3090 H       1  ZINC000626935317    0.1300
     41 H41       -13.4781   -1.3168   57.7348 H       1  ZINC000626935317    0.1300
     42 H42        -8.4721   -2.1910   58.6387 H       1  ZINC000626935317    0.0900
     43 H43        -7.6772   -1.6151   60.1676 H       1  ZINC000626935317    0.1100
     44 H44        -5.8796    3.8828   54.6591 H       1  ZINC000626935317    0.1400
     45 H45        -3.8316    3.7914   53.2521 H       1  ZINC000626935317    0.1400
     46 H46        -3.7059    2.1568   51.4149 H       1  ZINC000626935317    0.1600
     47 H47        -7.4965    0.7151   52.2968 H       1  ZINC000626935317    0.1500
@<TRIPOS>BOND
     1     1     2    1
     2     1    28    1
     3     1    29    1
     4     1    30    1
     5     2    20    1
     6     2     3   am
     7     3     4    2
     8     3     5    1
     9     5     6    1
    10     5    31    1
    11     5    32    1
    12     6     7    1
    13     6     8    1
    14     6    20    1
    15     8     9    2
    16     8    10   am
    17    10    11    1
    18    10    33    1
    19    11    19    1
    20    11    12    1
    21    11    34    1
    22    12    13    1
    23    12    35    1
    24    12    36    1
    25    13    14    1
    26    13    19    1
    27    13    37    1
    28    14    15   am
    29    14    38    1
    30    15    16    1
    31    15    17    2
    32    15    18    2
    33    16    39    1
    34    16    40    1
    35    16    41    1
    36    19    42    1
    37    19    43    1
    38    20    21    1
    39    20    22    1
    40    22    27   ar
    41    22    23   ar
    42    23    24   ar
    43    23    44    1
    44    24    25   ar
    45    24    45    1
    46    25    26   ar
    47    25    46    1
    48    26    27   ar
    49    27    47    1
@<TRIPOS>SUBSTRUCTURE
     1 ZINC000626935317        1 TEMP              0 ****  ****    0 ROOT


##########                                Name:    ZINC001707162141
##########                DOCK_Rotatable_Bonds:                   9
##########                         Heavy_Atoms:                  25
##########                    Molecular_Weight:               344.5
##########                DOCK_Rotatable_Bonds:                   9
##########                       Formal_Charge:          -0.0299999
##########                     HBond_Acceptors:                   5
##########                        HBond_Donors:                   1
##########                         Heavy_Atoms:                  25
##########                          Grid_Score:          -28.437571
##########                     Grid_vdw_energy:          -28.287615
##########                      Grid_es_energy:           -0.149956
##########           Internal_energy_repulsive:           85.997536

@<TRIPOS>MOLECULE
ZINC001707162141
 57 59 1 0 0
SMALL
USER_CHARGES


@<TRIPOS>ATOM
      1 C1        -10.9404   -0.5887   52.6183 C.3     1  ZINC001707162141   -0.1800
      2 C2        -10.2298   -0.0013   53.8393 C.3     1  ZINC001707162141    0.1700
      3 H3        -10.9133    0.6567   54.3759 H       1  ZINC001707162141    0.1000
      4 N4         -9.8004   -1.0903   54.7270 N.3     1  ZINC001707162141   -0.6400
      5 C5         -9.5384   -0.5912   56.0836 C.3     1  ZINC001707162141    0.0700
      6 C6        -10.0668   -1.5974   57.1079 C.3     1  ZINC001707162141    0.1500
      7 H7         -9.5123   -2.5318   57.0220 H       1  ZINC001707162141    0.0700
      8 C8        -11.5554   -1.8549   56.8540 C.3     1  ZINC001707162141   -0.1200
      9 C9        -12.1103   -2.7519   57.9629 C.3     1  ZINC001707162141   -0.0900
     10 H10       -11.5556   -3.6900   57.9826 H       1  ZINC001707162141    0.0700
     11 C11       -13.5888   -3.0396   57.6939 C.3     1  ZINC001707162141   -0.1500
     12 C12       -11.9658   -2.0457   59.3129 C.3     1  ZINC001707162141   -0.1300
     13 C13       -10.4818   -1.7903   59.5947 C.3     1  ZINC001707162141    0.1100
     14 N14        -9.9057   -1.0519   58.4626 N.am    1  ZINC001707162141   -0.6100
     15 C15        -9.2424    0.1042   58.6630 C.2     1  ZINC001707162141    0.5100
     16 O16        -8.7713    0.7043   57.7202 O.2     1  ZINC001707162141   -0.4800
     17 C17        -9.0860    0.6511   60.0585 C.3     1  ZINC001707162141   -0.1400
     18 C18       -10.3836    1.3407   60.4843 C.3     1  ZINC001707162141   -0.0900
     19 C19       -10.1705    2.0445   61.8261 C.3     1  ZINC001707162141   -0.0900
     20 C20       -10.1099    1.0024   62.9446 C.3     1  ZINC001707162141   -0.1500
     21 C21        -9.3966    1.3966   64.2396 C.3     1  ZINC001707162141   -0.1800
     22 C22        -8.7424    0.4026   63.2779 C.3     1  ZINC001707162141   -0.1800
     23 C23        -9.0252    0.7847   53.3896 C.ar    1  ZINC001707162141    0.3500
     24 N24        -7.9703    0.1381   52.9357 N.ar    1  ZINC001707162141   -0.5000
     25 C25        -6.8967    0.7948   52.5268 C.ar    1  ZINC001707162141    0.1500
     26 C26        -6.8879    2.1793   52.5917 C.ar    1  ZINC001707162141   -0.2400
     27 C27        -8.0138    2.8235   53.0802 C.ar    1  ZINC001707162141    0.1500
     28 N28        -9.0526    2.1001   53.4658 N.ar    1  ZINC001707162141   -0.5200
     29 H29       -11.8116   -1.1572   52.9436 H       1  ZINC001707162141    0.0600
     30 H30       -11.2589    0.2192   51.9598 H       1  ZINC001707162141    0.0600
     31 H31       -10.2568   -1.2467   52.0819 H       1  ZINC001707162141    0.0600
     32 H32       -10.4808   -1.8351   54.7409 H       1  ZINC001707162141    0.3300
     33 H33        -8.4650   -0.4616   56.2220 H       1  ZINC001707162141    0.1000
     34 H34       -10.0408    0.3660   56.2220 H       1  ZINC001707162141    0.0200
     35 H35       -12.0931   -0.9068   56.8497 H       1  ZINC001707162141    0.0700
     36 H36       -11.6800   -2.3486   55.8902 H       1  ZINC001707162141    0.0700
     37 H37       -14.1438   -2.1017   57.6746 H       1  ZINC001707162141    0.0500
     38 H38       -13.6919   -3.5427   56.7324 H       1  ZINC001707162141    0.0600
     39 H39       -13.9838   -3.6794   58.4829 H       1  ZINC001707162141    0.0600
     40 H40       -12.3824   -2.6751   60.0991 H       1  ZINC001707162141    0.0700
     41 H41       -12.4996   -1.0957   59.2855 H       1  ZINC001707162141    0.0700
     42 H42        -9.9632   -2.7417   59.7123 H       1  ZINC001707162141    0.0600
     43 H43       -10.3791   -1.2007   60.5057 H       1  ZINC001707162141    0.0800
     44 H44        -8.8659   -0.1655   60.7462 H       1  ZINC001707162141    0.0800
     45 H45        -8.2685    1.3718   60.0767 H       1  ZINC001707162141    0.0800
     46 H46       -10.6695    2.0745   59.7306 H       1  ZINC001707162141    0.0700
     47 H47       -11.1741    0.5970   60.5857 H       1  ZINC001707162141    0.0700
     48 H48        -9.2350    2.6031   61.7988 H       1  ZINC001707162141    0.0600
     49 H49       -10.9976    2.7297   62.0123 H       1  ZINC001707162141    0.0600
     50 H50       -10.9792    0.3499   63.0270 H       1  ZINC001707162141    0.1000
     51 H51        -8.9707    2.3984   64.2946 H       1  ZINC001707162141    0.0900
     52 H52        -9.7968    1.0035   65.1742 H       1  ZINC001707162141    0.0900
     53 H53        -8.7120   -0.6443   63.5799 H       1  ZINC001707162141    0.0900
     54 H54        -7.8860    0.7505   62.7004 H       1  ZINC001707162141    0.0900
     55 H55        -6.0371    0.2592   52.1520 H       1  ZINC001707162141    0.1600
     56 H56        -6.0248    2.7426   52.2691 H       1  ZINC001707162141    0.1400
     57 H57        -8.0425    3.9011   53.1455 H       1  ZINC001707162141    0.1600
@<TRIPOS>BOND
     1     1     2    1
     2     1    29    1
     3     1    30    1
     4     1    31    1
     5     2     3    1
     6     2     4    1
     7     2    23    1
     8     4     5    1
     9     4    32    1
    10     5     6    1
    11     5    33    1
    12     5    34    1
    13     6     7    1
    14     6    14    1
    15     6     8    1
    16     8     9    1
    17     8    35    1
    18     8    36    1
    19     9    10    1
    20     9    11    1
    21     9    12    1
    22    11    37    1
    23    11    38    1
    24    11    39    1
    25    12    13    1
    26    12    40    1
    27    12    41    1
    28    13    14    1
    29    13    42    1
    30    13    43    1
    31    14    15   am
    32    15    16    2
    33    15    17    1
    34    17    18    1
    35    17    44    1
    36    17    45    1
    37    18    19    1
    38    18    46    1
    39    18    47    1
    40    19    20    1
    41    19    48    1
    42    19    49    1
    43    20    22    1
    44    20    21    1
    45    20    50    1
    46    21    22    1
    47    21    51    1
    48    21    52    1
    49    22    53    1
    50    22    54    1
    51    23    28   ar
    52    23    24   ar
    53    24    25   ar
    54    25    26   ar
    55    25    55    1
    56    26    27   ar
    57    26    56    1
    58    27    28   ar
    59    27    57    1
@<TRIPOS>SUBSTRUCTURE
     1 ZINC001707162141        1 TEMP              0 ****  ****    0 ROOT


##########                                Name:    ZINC000790205345
##########                DOCK_Rotatable_Bonds:                   7
##########                         Heavy_Atoms:                  28
##########                    Molecular_Weight:             382.459
##########                DOCK_Rotatable_Bonds:                   7
##########                       Formal_Charge:          -0.0299997
##########                     HBond_Acceptors:                   6
##########                        HBond_Donors:                   0
##########                         Heavy_Atoms:                  28
##########                          Grid_Score:          -28.434439
##########                     Grid_vdw_energy:          -27.879459
##########                      Grid_es_energy:           -0.554980
##########           Internal_energy_repulsive:           48.675262

@<TRIPOS>MOLECULE
ZINC000790205345
 54 56 1 0 0
SMALL
USER_CHARGES


@<TRIPOS>ATOM
      1 C1         -5.9799    2.3803   51.5520 C.3     1  ZINC000790205345   -0.1100
      2 C2         -6.9568    1.6416   52.4301 C.ar    1  ZINC000790205345   -0.1300
      3 C3         -7.6161    0.5281   51.9439 C.ar    1  ZINC000790205345   -0.0800
      4 C4         -8.5119   -0.1513   52.7471 C.ar    1  ZINC000790205345   -0.2100
      5 C5         -8.7493    0.2849   54.0422 C.ar    1  ZINC000790205345    0.1300
      6 O6         -9.6295   -0.3819   54.8345 O.3     1  ZINC000790205345   -0.2900
      7 C7         -9.3039   -0.4850   56.2221 C.3     1  ZINC000790205345    0.0400
      8 C8         -9.8112   -1.7978   56.7609 C.2     1  ZINC000790205345    0.5200
      9 O9        -10.1567   -2.6740   55.9968 O.2     1  ZINC000790205345   -0.5100
     10 N10        -9.8811   -1.9982   58.0918 N.am    1  ZINC000790205345   -0.6100
     11 C11       -10.3726   -3.2752   58.6154 C.3     1  ZINC000790205345    0.0700
     12 C12        -9.4656   -0.9393   59.0149 C.3     1  ZINC000790205345    0.1800
     13 H13        -8.6550   -0.3643   58.5670 H       1  ZINC000790205345    0.1200
     14 C14        -8.9836   -1.5651   60.3252 C.3     1  ZINC000790205345   -0.1600
     15 C15       -10.6335   -0.0284   59.2929 C.ar    1  ZINC000790205345   -0.0700
     16 C16       -10.4317    1.3332   59.4227 C.ar    1  ZINC000790205345   -0.1300
     17 C17       -11.5009    2.1724   59.6784 C.ar    1  ZINC000790205345   -0.0900
     18 C18       -12.7739    1.6524   59.8045 C.ar    1  ZINC000790205345   -0.1500
     19 C19       -12.9800    0.2852   59.6742 C.ar    1  ZINC000790205345    0.1800
     20 N20       -14.2691   -0.2449   59.8011 N.am    1  ZINC000790205345   -0.5700
     21 C21       -14.6233   -1.6683   59.6914 C.3     1  ZINC000790205345    0.0600
     22 C22       -16.1483   -1.6850   59.9113 C.3     1  ZINC000790205345    0.0400
     23 O23       -16.4900   -0.2840   60.1196 O.3     1  ZINC000790205345   -0.3200
     24 C24       -15.3811    0.4609   60.0481 C.2     1  ZINC000790205345    0.6400
     25 O25       -15.3832    1.6682   60.1864 O.2     1  ZINC000790205345   -0.5000
     26 C26       -11.9053   -0.5541   59.4124 C.ar    1  ZINC000790205345   -0.1400
     27 C27        -8.0862    1.4028   54.5279 C.ar    1  ZINC000790205345   -0.1500
     28 C28        -7.1877    2.0753   53.7227 C.ar    1  ZINC000790205345   -0.0500
     29 C29        -6.4668    3.2893   54.2496 C.3     1  ZINC000790205345   -0.1200
     30 H30        -4.9842    1.9553   51.6785 H       1  ZINC000790205345    0.0700
     31 H31        -6.2853    2.2866   50.5098 H       1  ZINC000790205345    0.0600
     32 H32        -5.9638    3.4335   51.8325 H       1  ZINC000790205345    0.0700
     33 H33        -7.4312    0.1890   50.9353 H       1  ZINC000790205345    0.1300
     34 H34        -9.0271   -1.0209   52.3667 H       1  ZINC000790205345    0.1300
     35 H35        -8.2222   -0.4350   56.3462 H       1  ZINC000790205345    0.1000
     36 H36        -9.7705    0.3359   56.7667 H       1  ZINC000790205345    0.0900
     37 H37        -9.5546   -3.9949   58.6446 H       1  ZINC000790205345    0.0600
     38 H38       -10.7637   -3.1285   59.6222 H       1  ZINC000790205345    0.0800
     39 H39       -11.1652   -3.6520   57.9691 H       1  ZINC000790205345    0.0700
     40 H40        -9.7942   -2.1400   60.7730 H       1  ZINC000790205345    0.0600
     41 H41        -8.1388   -2.2238   60.1241 H       1  ZINC000790205345    0.0700
     42 H42        -8.6744   -0.7771   61.0120 H       1  ZINC000790205345    0.0800
     43 H43        -9.4370    1.7423   59.3245 H       1  ZINC000790205345    0.1300
     44 H44       -11.3399    3.2355   59.7799 H       1  ZINC000790205345    0.1300
     45 H45       -13.6083    2.3083   60.0046 H       1  ZINC000790205345    0.1300
     46 H46       -14.3751   -2.0494   58.7009 H       1  ZINC000790205345    0.1000
     47 H47       -14.1188   -2.2489   60.4637 H       1  ZINC000790205345    0.1000
     48 H48       -16.6571   -2.0754   59.0300 H       1  ZINC000790205345    0.1100
     49 H49       -16.4009   -2.2749   60.7923 H       1  ZINC000790205345    0.1100
     50 H50       -12.0624   -1.6177   59.3103 H       1  ZINC000790205345    0.1600
     51 H51        -8.2695    1.7445   55.5358 H       1  ZINC000790205345    0.1300
     52 H52        -5.5340    2.9813   54.7219 H       1  ZINC000790205345    0.0700
     53 H53        -6.2498    3.9691   53.4256 H       1  ZINC000790205345    0.0700
     54 H54        -7.0953    3.7954   54.9824 H       1  ZINC000790205345    0.0700
@<TRIPOS>BOND
     1     1     2    1
     2     1    30    1
     3     1    31    1
     4     1    32    1
     5     2    28   ar
     6     2     3   ar
     7     3     4   ar
     8     3    33    1
     9     4     5   ar
    10     4    34    1
    11     5     6    1
    12     5    27   ar
    13     6     7    1
    14     7     8    1
    15     7    35    1
    16     7    36    1
    17     8     9    2
    18     8    10   am
    19    10    11    1
    20    10    12    1
    21    11    37    1
    22    11    38    1
    23    11    39    1
    24    12    13    1
    25    12    14    1
    26    12    15    1
    27    14    40    1
    28    14    41    1
    29    14    42    1
    30    15    26   ar
    31    15    16   ar
    32    16    17   ar
    33    16    43    1
    34    17    18   ar
    35    17    44    1
    36    18    19   ar
    37    18    45    1
    38    19    20    1
    39    19    26   ar
    40    20    24   am
    41    20    21    1
    42    21    22    1
    43    21    46    1
    44    21    47    1
    45    22    23    1
    46    22    48    1
    47    22    49    1
    48    23    24    1
    49    24    25    2
    50    26    50    1
    51    27    28   ar
    52    27    51    1
    53    28    29    1
    54    29    52    1
    55    29    53    1
    56    29    54    1
@<TRIPOS>SUBSTRUCTURE
     1 ZINC000790205345        1 TEMP              0 ****  ****    0 ROOT


##########                                Name:    ZINC000194290865
##########                DOCK_Rotatable_Bonds:                   7
##########                         Heavy_Atoms:                  28
##########                    Molecular_Weight:             387.479
##########                DOCK_Rotatable_Bonds:                   7
##########                       Formal_Charge:          -0.0400003
##########                     HBond_Acceptors:                   7
##########                        HBond_Donors:                   0
##########                         Heavy_Atoms:                  28
##########                          Grid_Score:          -28.423409
##########                     Grid_vdw_energy:          -28.403687
##########                      Grid_es_energy:           -0.019722
##########           Internal_energy_repulsive:           26.817257

@<TRIPOS>MOLECULE
ZINC000194290865
 57 59 1 0 0
SMALL
USER_CHARGES


@<TRIPOS>ATOM
      1 C1         -8.6356   -0.4360   61.4576 C.3     1  ZINC000194290865   -0.1500
      2 C2         -8.7092   -1.3941   60.2670 C.3     1  ZINC000194290865    0.0600
      3 O3         -9.6572   -0.8836   59.2928 O.3     1  ZINC000194290865   -0.3600
      4 C4         -9.8754   -1.6358   58.2028 C.2     1  ZINC000194290865    0.4700
      5 O5         -9.4305   -2.7576   58.1439 O.2     1  ZINC000194290865   -0.4900
      6 C6        -10.6753   -1.0811   57.0523 C.3     1  ZINC000194290865   -0.0600
      7 C7        -12.1552   -1.4331   57.2164 C.3     1  ZINC000194290865   -0.0700
      8 C8        -12.3122   -2.9529   57.2968 C.3     1  ZINC000194290865   -0.1700
      9 C9        -12.6915   -0.7964   58.5001 C.3     1  ZINC000194290865   -0.1600
     10 C10       -10.4924    0.4514   56.9604 C.3     1  ZINC000194290865   -0.1200
     11 C11        -9.3896    0.6025   55.8824 C.3     1  ZINC000194290865    0.0900
     12 N12        -9.7149   -0.4677   54.9115 N.am    1  ZINC000194290865   -0.6100
     13 C13        -9.6371   -0.3959   53.5679 C.2     1  ZINC000194290865    0.5800
     14 O14        -9.9373   -1.3585   52.8895 O.2     1  ZINC000194290865   -0.5000
     15 C15        -9.1858    0.8553   52.9187 C.ar    1  ZINC000194290865    0.0100
     16 C16       -10.1094    1.8359   52.5083 C.ar    1  ZINC000194290865   -0.2200
     17 C17        -9.6386    3.0100   51.8954 C.ar    1  ZINC000194290865    0.3000
     18 N18        -8.3394    3.1854   51.7090 N.ar    1  ZINC000194290865   -0.4700
     19 C19        -7.4534    2.2867   52.0820 C.ar    1  ZINC000194290865    0.2100
     20 C20        -5.9901    2.5530   51.8389 C.3     1  ZINC000194290865   -0.1100
     21 C21        -7.8314    1.1048   52.6982 C.ar    1  ZINC000194290865   -0.1800
     22 O22       -10.7203    3.7622   51.6089 O.3     1  ZINC000194290865   -0.0800
     23 N23       -11.8878    3.0865   52.0305 N.2     1  ZINC000194290865   -0.2600
     24 C24       -11.5664    1.9480   52.5651 C.2     1  ZINC000194290865    0.1600
     25 C25       -12.5186    0.9301   53.1378 C.3     1  ZINC000194290865   -0.0400
     26 C26       -13.4001    1.5953   54.1967 C.3     1  ZINC000194290865   -0.1500
     27 C27       -13.3996    0.3699   52.0194 C.3     1  ZINC000194290865   -0.1400
     28 C28       -10.1403   -1.6284   55.7159 C.3     1  ZINC000194290865    0.1200
     29 H29        -8.3104    0.5460   61.1142 H       1  ZINC000194290865    0.0700
     30 H30        -9.6202   -0.3522   61.9179 H       1  ZINC000194290865    0.0700
     31 H31        -7.9241   -0.8193   62.1890 H       1  ZINC000194290865    0.0800
     32 H32        -7.7247   -1.4778   59.8068 H       1  ZINC000194290865    0.0700
     33 H33        -9.0345   -2.3761   60.6105 H       1  ZINC000194290865    0.0700
     34 H34       -12.7156   -1.0546   56.3616 H       1  ZINC000194290865    0.0900
     35 H35       -11.9301   -3.4065   56.3823 H       1  ZINC000194290865    0.0500
     36 H36       -11.7516   -3.3313   58.1517 H       1  ZINC000194290865    0.0800
     37 H37       -13.3665   -3.2036   57.4137 H       1  ZINC000194290865    0.0600
     38 H38       -12.5796    0.2863   58.4429 H       1  ZINC000194290865    0.0500
     39 H39       -13.7458   -1.0470   58.6171 H       1  ZINC000194290865    0.0600
     40 H40       -12.1309   -1.1748   59.3550 H       1  ZINC000194290865    0.0800
     41 H41       -11.4160    0.9318   56.6376 H       1  ZINC000194290865    0.0900
     42 H42       -10.1576    0.8580   57.9146 H       1  ZINC000194290865    0.0900
     43 H43        -9.4468    1.5823   55.4084 H       1  ZINC000194290865    0.0900
     44 H44        -8.4028    0.4412   56.3164 H       1  ZINC000194290865    0.0900
     45 H45        -5.5667    3.0690   52.7006 H       1  ZINC000194290865    0.0900
     46 H46        -5.4687    1.6076   51.6891 H       1  ZINC000194290865    0.0900
     47 H47        -5.8767    3.1752   50.9511 H       1  ZINC000194290865    0.0900
     48 H48        -7.0869    0.3814   52.9962 H       1  ZINC000194290865    0.1600
     49 H49       -11.9516    0.1188   53.5945 H       1  ZINC000194290865    0.1100
     50 H50       -13.9671    2.4065   53.7401 H       1  ZINC000194290865    0.0700
     51 H51       -14.0888    0.8590   54.6110 H       1  ZINC000194290865    0.0700
     52 H52       -12.7724    1.9943   54.9935 H       1  ZINC000194290865    0.0600
     53 H53       -12.7716   -0.1041   51.2650 H       1  ZINC000194290865    0.0600
     54 H54       -14.0883   -0.3664   52.4337 H       1  ZINC000194290865    0.0700
     55 H55       -13.9665    1.1811   51.5627 H       1  ZINC000194290865    0.0600
     56 H56        -9.2901   -2.2858   55.8976 H       1  ZINC000194290865    0.0800
     57 H57       -10.9286   -2.1721   55.1951 H       1  ZINC000194290865    0.1000
@<TRIPOS>BOND
     1     1     2    1
     2     1    29    1
     3     1    30    1
     4     1    31    1
     5     2     3    1
     6     2    32    1
     7     2    33    1
     8     3     4    1
     9     4     5    2
    10     4     6    1
    11     6    28    1
    12     6     7    1
    13     6    10    1
    14     7     8    1
    15     7     9    1
    16     7    34    1
    17     8    35    1
    18     8    36    1
    19     8    37    1
    20     9    38    1
    21     9    39    1
    22     9    40    1
    23    10    11    1
    24    10    41    1
    25    10    42    1
    26    11    12    1
    27    11    43    1
    28    11    44    1
    29    12    13   am
    30    12    28    1
    31    13    14    2
    32    13    15    1
    33    15    21   ar
    34    15    16   ar
    35    16    24    1
    36    16    17   ar
    37    17    18   ar
    38    17    22    1
    39    18    19   ar
    40    19    20    1
    41    19    21   ar
    42    20    45    1
    43    20    46    1
    44    20    47    1
    45    21    48    1
    46    22    23    1
    47    23    24    2
    48    24    25    1
    49    25    26    1
    50    25    27    1
    51    25    49    1
    52    26    50    1
    53    26    51    1
    54    26    52    1
    55    27    53    1
    56    27    54    1
    57    27    55    1
    58    28    56    1
    59    28    57    1
@<TRIPOS>SUBSTRUCTURE
     1 ZINC000194290865        1 TEMP              0 ****  ****    0 ROOT


##########                                Name:    ZINC000151820600
##########                DOCK_Rotatable_Bonds:                  10
##########                         Heavy_Atoms:                  25
##########                    Molecular_Weight:             388.915
##########                DOCK_Rotatable_Bonds:                  10
##########                       Formal_Charge:           0.0499998
##########                     HBond_Acceptors:                   8
##########                        HBond_Donors:                   2
##########                         Heavy_Atoms:                  25
##########                          Grid_Score:          -28.420599
##########                     Grid_vdw_energy:          -26.936981
##########                      Grid_es_energy:           -1.483618
##########           Internal_energy_repulsive:           25.453564

@<TRIPOS>MOLECULE
ZINC000151820600
 50 50 1 0 0
SMALL
USER_CHARGES


@<TRIPOS>ATOM
      1 C1        -14.2970    1.0227   60.2981 C.3     1  ZINC000151820600   -0.4900
      2 S2        -15.2566   -0.2728   59.4667 S.o     1  ZINC000151820600    1.2500
      3 O3        -16.5690   -0.3128   60.0102 O.2     1  ZINC000151820600   -0.8500
      4 C4        -14.3695   -1.7898   59.9162 C.3     1  ZINC000151820600   -0.4500
      5 C5        -15.0661   -2.9951   59.2815 C.3     1  ZINC000151820600   -0.1100
      6 C6        -15.0702   -2.8386   57.7594 C.3     1  ZINC000151820600    0.1200
      7 N7        -13.7777   -2.3072   57.3197 N.am    1  ZINC000151820600   -0.7200
      8 C8        -12.7303   -3.1381   57.1491 C.2     1  ZINC000151820600    0.5200
      9 O9        -12.8574   -4.3256   57.3610 O.2     1  ZINC000151820600   -0.5200
     10 C10       -11.4013   -2.5918   56.6951 C.3     1  ZINC000151820600    0.1900
     11 H11       -10.8241   -3.3865   56.2224 H       1  ZINC000151820600    0.1300
     12 N12       -11.6213   -1.5093   55.7326 N.am    1  ZINC000151820600   -0.6900
     13 C13       -10.6512   -1.1780   54.8577 C.2     1  ZINC000151820600    0.6600
     14 O14        -9.5935   -1.7760   54.8681 O.2     1  ZINC000151820600   -0.5600
     15 O15       -10.8540   -0.1843   53.9721 O.3     1  ZINC000151820600   -0.3600
     16 C16       -10.3860    1.1382   54.3466 C.3     1  ZINC000151820600    0.1400
     17 C17       -11.4226    1.8091   55.2501 C.3     1  ZINC000151820600   -0.1800
     18 C18        -9.0584    1.0157   55.0973 C.3     1  ZINC000151820600   -0.1400
     19 C19       -10.1839    1.9833   53.0874 C.3     1  ZINC000151820600   -0.1800
     20 C20       -10.6439   -2.0600   57.8845 C.ar    1  ZINC000151820600   -0.1000
     21 C21        -9.4647   -2.6637   58.2789 C.ar    1  ZINC000151820600   -0.0900
     22 C22        -8.7690   -2.1760   59.3697 C.ar    1  ZINC000151820600   -0.1000
     23 C23        -9.2525   -1.0851   60.0666 C.ar    1  ZINC000151820600   -0.1000
     24 C24       -10.4331   -0.4804   59.6723 C.ar    1  ZINC000151820600   -0.0300
     25 Cl25      -11.0409    0.8904   60.5470 Cl      1  ZINC000151820600   -0.0600
     26 C26       -11.1257   -0.9653   58.5774 C.ar    1  ZINC000151820600   -0.0900
     27 H27       -14.2959    0.8409   61.3729 H       1  ZINC000151820600    0.0800
     28 H28       -13.2723    1.0109   59.9266 H       1  ZINC000151820600    0.1100
     29 H29       -14.7460    1.9948   60.0946 H       1  ZINC000151820600    0.1100
     30 H30       -13.3430   -1.7313   59.5542 H       1  ZINC000151820600    0.1200
     31 H31       -14.3666   -1.9013   61.0005 H       1  ZINC000151820600    0.0900
     32 H32       -14.5330   -3.9067   59.5515 H       1  ZINC000151820600    0.0800
     33 H33       -16.0926   -3.0537   59.6434 H       1  ZINC000151820600    0.0900
     34 H34       -15.2408   -3.8098   57.2949 H       1  ZINC000151820600    0.0800
     35 H35       -15.8641   -2.1514   57.4669 H       1  ZINC000151820600    0.0700
     36 H36       -13.6757   -1.3574   57.1514 H       1  ZINC000151820600    0.4000
     37 H37       -12.4653   -1.0312   55.7251 H       1  ZINC000151820600    0.4200
     38 H38       -11.5667    1.2069   56.1473 H       1  ZINC000151820600    0.0600
     39 H39       -11.0713    2.8018   55.5314 H       1  ZINC000151820600    0.0700
     40 H40       -12.3684    1.8963   54.7154 H       1  ZINC000151820600    0.0900
     41 H41        -8.3199    0.5377   54.4537 H       1  ZINC000151820600    0.0700
     42 H42        -8.7071    2.0084   55.3785 H       1  ZINC000151820600    0.0800
     43 H43        -9.2024    0.4135   55.9945 H       1  ZINC000151820600    0.0700
     44 H44       -11.1296    2.0705   52.5527 H       1  ZINC000151820600    0.0900
     45 H45        -9.8325    2.9760   53.3687 H       1  ZINC000151820600    0.0700
     46 H46        -9.4453    1.5053   52.4438 H       1  ZINC000151820600    0.0600
     47 H47        -9.0867   -3.5167   57.7349 H       1  ZINC000151820600    0.1300
     48 H48        -7.8475   -2.6481   59.6774 H       1  ZINC000151820600    0.1400
     49 H49        -8.7094   -0.7048   60.9192 H       1  ZINC000151820600    0.1400
     50 H50       -12.0471   -0.4937   58.2691 H       1  ZINC000151820600    0.1400
@<TRIPOS>BOND
     1     1     2    1
     2     1    27    1
     3     1    28    1
     4     1    29    1
     5     2     3    2
     6     2     4    1
     7     4     5    1
     8     4    30    1
     9     4    31    1
    10     5     6    1
    11     5    32    1
    12     5    33    1
    13     6     7    1
    14     6    34    1
    15     6    35    1
    16     7     8   am
    17     7    36    1
    18     8     9    2
    19     8    10    1
    20    10    11    1
    21    10    12    1
    22    10    20    1
    23    12    13   am
    24    12    37    1
    25    13    14    2
    26    13    15    1
    27    15    16    1
    28    16    17    1
    29    16    18    1
    30    16    19    1
    31    17    38    1
    32    17    39    1
    33    17    40    1
    34    18    41    1
    35    18    42    1
    36    18    43    1
    37    19    44    1
    38    19    45    1
    39    19    46    1
    40    20    26   ar
    41    20    21   ar
    42    21    22   ar
    43    21    47    1
    44    22    23   ar
    45    22    48    1
    46    23    24   ar
    47    23    49    1
    48    24    25    1
    49    24    26   ar
    50    26    50    1
@<TRIPOS>SUBSTRUCTURE
     1 ZINC000151820600        1 TEMP              0 ****  ****    0 ROOT


##########                                Name:    ZINC000265724350
##########                DOCK_Rotatable_Bonds:                   8
##########                         Heavy_Atoms:                  23
##########                    Molecular_Weight:              345.42
##########                DOCK_Rotatable_Bonds:                   8
##########                       Formal_Charge:          -0.0300002
##########                     HBond_Acceptors:                   9
##########                        HBond_Donors:                   2
##########                         Heavy_Atoms:                  23
##########                          Grid_Score:          -28.417702
##########                     Grid_vdw_energy:          -25.263042
##########                      Grid_es_energy:           -3.154660
##########           Internal_energy_repulsive:            4.354189

@<TRIPOS>MOLECULE
ZINC000265724350
 46 47 1 0 0
SMALL
USER_CHARGES


@<TRIPOS>ATOM
      1 C1         -8.1769    3.2124   67.7414 C.3     1  ZINC000265724350    0.0800
      2 N2         -8.3315    2.5241   66.4574 N.am    1  ZINC000265724350   -1.1100
      3 S3         -8.8400    0.9486   66.4184 S.o2    1  ZINC000265724350    2.7200
      4 O4         -7.8061    0.1784   67.0159 O.2     1  ZINC000265724350   -0.9300
      5 O5        -10.1807    0.9479   66.8892 O.2     1  ZINC000265724350   -0.9300
      6 C6         -8.9069    0.4639   64.7257 C.2     1  ZINC000265724350   -0.5600
      7 C7         -7.9861   -0.2907   64.0863 C.2     1  ZINC000265724350   -0.0900
      8 C8         -8.4223   -0.4392   62.7604 C.2     1  ZINC000265724350   -0.1400
      9 C9         -9.6018    0.2408   62.6568 C.2     1  ZINC000265724350   -0.0200
     10 C10       -10.4236    0.3616   61.4481 C.2     1  ZINC000265724350    0.6000
     11 O11       -11.4476    1.0190   61.4716 O.2     1  ZINC000265724350   -0.5000
     12 N12       -10.0449   -0.2554   60.3112 N.am    1  ZINC000265724350   -0.7100
     13 C13       -10.8650   -0.1333   59.1034 C.3     1  ZINC000265724350    0.1200
     14 C14       -10.2389   -0.9575   57.9766 C.3     1  ZINC000265724350   -0.1100
     15 H15        -9.1674   -0.7623   57.9357 H       1  ZINC000265724350    0.0800
     16 C16       -10.4766   -2.4456   58.2406 C.3     1  ZINC000265724350   -0.1400
     17 C17       -10.8796   -0.5675   56.6430 C.3     1  ZINC000265724350    0.0600
     18 N18        -9.8292   -0.1990   55.6844 N.3     1  ZINC000265724350   -0.5300
     19 C19        -9.4386    1.2090   55.8462 C.3     1  ZINC000265724350    0.0100
     20 C20        -8.3036    1.5334   54.8713 C.3     1  ZINC000265724350    0.0600
     21 O21        -8.7285    1.2392   53.5379 O.3     1  ZINC000265724350   -0.3900
     22 C22        -9.1157   -0.1239   53.3445 C.3     1  ZINC000265724350    0.0600
     23 C23       -10.2590   -0.4650   54.3038 C.3     1  ZINC000265724350    0.0200
     24 O24        -9.8816    0.7777   63.8624 O.3     1  ZINC000265724350   -0.1100
     25 H25        -7.8368    4.2333   67.5678 H       1  ZINC000265724350    0.0900
     26 H26        -9.1351    3.2321   68.2607 H       1  ZINC000265724350    0.0600
     27 H27        -7.4440    2.6839   68.3510 H       1  ZINC000265724350    0.0700
     28 H28        -8.1359    2.9912   65.6301 H       1  ZINC000265724350    0.4200
     29 H29        -7.0842   -0.7021   64.5148 H       1  ZINC000265724350    0.1800
     30 H30        -7.9219   -0.9853   61.9746 H       1  ZINC000265724350    0.1700
     31 H31        -9.2295   -0.7803   60.2929 H       1  ZINC000265724350    0.4100
     32 H32       -11.8702   -0.5018   59.3078 H       1  ZINC000265724350    0.0800
     33 H33       -10.9158    0.9133   58.8031 H       1  ZINC000265724350    0.0700
     34 H34       -10.0201   -2.7235   59.1907 H       1  ZINC000265724350    0.0500
     35 H35       -11.5481   -2.6409   58.2814 H       1  ZINC000265724350    0.0600
     36 H36       -10.0306   -3.0328   57.4378 H       1  ZINC000265724350    0.0700
     37 H37       -11.4481   -1.4114   56.2524 H       1  ZINC000265724350    0.0800
     38 H38       -11.5468    0.2810   56.7949 H       1  ZINC000265724350    0.0400
     39 H39       -10.2941    1.8506   55.6352 H       1  ZINC000265724350    0.0400
     40 H40        -9.0998    1.3776   56.8684 H       1  ZINC000265724350    0.0900
     41 H41        -8.0494    2.5906   54.9475 H       1  ZINC000265724350    0.1000
     42 H42        -7.4296    0.9298   55.1164 H       1  ZINC000265724350    0.0600
     43 H43        -9.4489   -0.2652   52.3164 H       1  ZINC000265724350    0.1000
     44 H44        -8.2654   -0.7757   53.5451 H       1  ZINC000265724350    0.0600
     45 H45       -10.5190   -1.5184   54.2002 H       1  ZINC000265724350    0.0900
     46 H46       -11.1276    0.1499   54.0682 H       1  ZINC000265724350    0.0400
@<TRIPOS>BOND
     1     1     2    1
     2     1    25    1
     3     1    26    1
     4     1    27    1
     5     2     3   am
     6     2    28    1
     7     3     4    2
     8     3     5    2
     9     3     6    1
    10     6    24    1
    11     6     7    2
    12     7     8    1
    13     7    29    1
    14     8     9    2
    15     8    30    1
    16     9    10    1
    17     9    24    1
    18    10    11    2
    19    10    12   am
    20    12    13    1
    21    12    31    1
    22    13    14    1
    23    13    32    1
    24    13    33    1
    25    14    15    1
    26    14    16    1
    27    14    17    1
    28    16    34    1
    29    16    35    1
    30    16    36    1
    31    17    18    1
    32    17    37    1
    33    17    38    1
    34    18    23    1
    35    18    19    1
    36    19    20    1
    37    19    39    1
    38    19    40    1
    39    20    21    1
    40    20    41    1
    41    20    42    1
    42    21    22    1
    43    22    23    1
    44    22    43    1
    45    22    44    1
    46    23    45    1
    47    23    46    1
@<TRIPOS>SUBSTRUCTURE
     1 ZINC000265724350        1 TEMP              0 ****  ****    0 ROOT


##########                                Name:    ZINC000536173632
##########                DOCK_Rotatable_Bonds:                   7
##########                         Heavy_Atoms:                  29
##########                    Molecular_Weight:             407.389
##########                DOCK_Rotatable_Bonds:                   7
##########                       Formal_Charge:        -2.98023e-07
##########                     HBond_Acceptors:                   8
##########                        HBond_Donors:                   0
##########                         Heavy_Atoms:                  29
##########                          Grid_Score:          -28.400114
##########                     Grid_vdw_energy:          -27.525181
##########                      Grid_es_energy:           -0.874932
##########           Internal_energy_repulsive:           14.865408

@<TRIPOS>MOLECULE
ZINC000536173632
 49 51 1 0 0
SMALL
USER_CHARGES


@<TRIPOS>ATOM
      1 C1        -12.0955    3.0178   66.4316 C.3     1  ZINC000536173632    0.0400
      2 O2        -11.1165    2.1648   65.7818 O.3     1  ZINC000536173632   -0.3500
      3 C3        -11.2260    2.0145   64.4477 C.2     1  ZINC000536173632    0.5100
      4 O4        -12.1153    2.5801   63.8437 O.2     1  ZINC000536173632   -0.5000
      5 C5        -10.2646    1.1618   63.7190 C.ar    1  ZINC000536173632   -0.1300
      6 C6         -9.2411    0.5106   64.4100 C.ar    1  ZINC000536173632   -0.0600
      7 C7         -8.3466   -0.2843   63.7233 C.ar    1  ZINC000536173632   -0.1300
      8 C8         -8.4619   -0.4363   62.3531 C.ar    1  ZINC000536173632   -0.0700
      9 C9         -9.4741    0.2063   61.6619 C.ar    1  ZINC000536173632   -0.0800
     10 C10        -9.5918    0.0346   60.1693 C.3     1  ZINC000536173632   -0.1000
     11 C11       -10.5935   -1.0496   59.8658 C.2     1  ZINC000536173632    0.5200
     12 O12       -10.9797   -1.7835   60.7509 O.2     1  ZINC000536173632   -0.5200
     13 N13       -11.0603   -1.2037   58.6109 N.am    1  ZINC000536173632   -0.6200
     14 C14       -12.0387   -2.2550   58.2903 C.3     1  ZINC000536173632    0.0700
     15 C15       -11.5259   -3.0390   57.0769 C.3     1  ZINC000536173632    0.0500
     16 O16       -11.2096   -2.1241   56.0249 O.3     1  ZINC000536173632   -0.3700
     17 C17       -10.1638   -1.2032   56.3449 C.3     1  ZINC000536173632    0.1200
     18 H18        -9.2649   -1.7546   56.6206 H       1  ZINC000536173632    0.0800
     19 C19        -9.8744   -0.3345   55.1479 C.ar    1  ZINC000536173632   -0.0900
     20 C20       -10.7728   -0.2815   54.0991 C.ar    1  ZINC000536173632   -0.0600
     21 C21       -10.5072    0.5154   53.0009 C.ar    1  ZINC000536173632   -0.1200
     22 C22        -9.3435    1.2594   52.9523 C.ar    1  ZINC000536173632   -0.0700
     23 C23        -8.4452    1.2072   54.0019 C.ar    1  ZINC000536173632   -0.1800
     24 C24        -7.1760    2.0181   53.9488 C.3     1  ZINC000536173632    0.5100
     25 F25        -7.4570    3.2912   53.4415 F       1  ZINC000536173632   -0.1800
     26 F26        -6.6439    2.1365   55.2372 F       1  ZINC000536173632   -0.1800
     27 F27        -6.2490    1.3793   53.1183 F       1  ZINC000536173632   -0.1800
     28 C28        -8.7127    0.4138   55.1016 C.ar    1  ZINC000536173632   -0.0500
     29 C29       -10.6111   -0.3216   57.5220 C.3     1  ZINC000536173632    0.0900
     30 C30       -10.3789    0.9989   62.3368 C.ar    1  ZINC000536173632   -0.0400
     31 H31       -12.0326    4.0241   66.0174 H       1  ZINC000536173632    0.0600
     32 H32       -13.0952    2.6173   66.2631 H       1  ZINC000536173632    0.0600
     33 H33       -11.8937    3.0523   67.5022 H       1  ZINC000536173632    0.1000
     34 H34        -9.1495    0.6291   65.4796 H       1  ZINC000536173632    0.1400
     35 H35        -7.5544   -0.7886   64.2566 H       1  ZINC000536173632    0.1400
     36 H36        -7.7586   -1.0592   61.8203 H       1  ZINC000536173632    0.1300
     37 H37        -9.9230    0.9712   59.7208 H       1  ZINC000536173632    0.1100
     38 H38        -8.6211   -0.2421   59.7578 H       1  ZINC000536173632    0.1100
     39 H39       -12.1481   -2.9266   59.1418 H       1  ZINC000536173632    0.1000
     40 H40       -13.0011   -1.8011   58.0542 H       1  ZINC000536173632    0.0800
     41 H41       -10.6320   -3.5970   57.3552 H       1  ZINC000536173632    0.0600
     42 H42       -12.2971   -3.7308   56.7381 H       1  ZINC000536173632    0.1100
     43 H43       -11.6821   -0.8629   54.1370 H       1  ZINC000536173632    0.1400
     44 H44       -11.2089    0.5563   52.1810 H       1  ZINC000536173632    0.1400
     45 H45        -9.1356    1.8815   52.0941 H       1  ZINC000536173632    0.1400
     46 H46        -8.0111    0.3730   55.9216 H       1  ZINC000536173632    0.1400
     47 H47       -11.4289    0.3259   57.2057 H       1  ZINC000536173632    0.0800
     48 H48        -9.7733    0.2854   57.8652 H       1  ZINC000536173632    0.1100
     49 H49       -11.1685    1.4995   61.7963 H       1  ZINC000536173632    0.1400
@<TRIPOS>BOND
     1     1     2    1
     2     1    31    1
     3     1    32    1
     4     1    33    1
     5     2     3    1
     6     3     4    2
     7     3     5    1
     8     5    30   ar
     9     5     6   ar
    10     6     7   ar
    11     6    34    1
    12     7     8   ar
    13     7    35    1
    14     8     9   ar
    15     8    36    1
    16     9    10    1
    17     9    30   ar
    18    10    11    1
    19    10    37    1
    20    10    38    1
    21    11    12    2
    22    11    13   am
    23    13    29    1
    24    13    14    1
    25    14    15    1
    26    14    39    1
    27    14    40    1
    28    15    16    1
    29    15    41    1
    30    15    42    1
    31    16    17    1
    32    17    18    1
    33    17    19    1
    34    17    29    1
    35    19    28   ar
    36    19    20   ar
    37    20    21   ar
    38    20    43    1
    39    21    22   ar
    40    21    44    1
    41    22    23   ar
    42    22    45    1
    43    23    24    1
    44    23    28   ar
    45    24    25    1
    46    24    26    1
    47    24    27    1
    48    28    46    1
    49    29    47    1
    50    29    48    1
    51    30    49    1
@<TRIPOS>SUBSTRUCTURE
     1 ZINC000536173632        1 TEMP              0 ****  ****    0 ROOT


##########                                Name:    ZINC000854704989
##########                DOCK_Rotatable_Bonds:                   5
##########                         Heavy_Atoms:                  22
##########                    Molecular_Weight:             365.227
##########                DOCK_Rotatable_Bonds:                   5
##########                       Formal_Charge:        -1.78814e-07
##########                     HBond_Acceptors:                   5
##########                        HBond_Donors:                   1
##########                         Heavy_Atoms:                  22
##########                          Grid_Score:          -28.399614
##########                     Grid_vdw_energy:          -28.492678
##########                      Grid_es_energy:            0.093064
##########           Internal_energy_repulsive:            6.778032

@<TRIPOS>MOLECULE
ZINC000854704989
 39 41 1 0 0
SMALL
USER_CHARGES


@<TRIPOS>ATOM
      1 O1        -10.9670   -0.4310   61.1229 O.2     1  ZINC000854704989   -0.5300
      2 C2        -10.2693   -0.2047   60.1537 C.2     1  ZINC000854704989    0.5700
      3 N3         -9.3796    0.8072   60.1853 N.am    1  ZINC000854704989   -0.7300
      4 C4         -9.2578    1.6383   61.3856 C.3     1  ZINC000854704989    0.2000
      5 C5         -8.7577    0.7963   62.5310 C.2     1  ZINC000854704989   -0.0500
      6 C6         -9.0482    0.9589   63.8436 C.2     1  ZINC000854704989   -0.1700
      7 C7         -8.3328   -0.0807   64.4833 C.2     1  ZINC000854704989    0.0000
      8 Br8        -8.2854   -0.4494   66.3374 Br      1  ZINC000854704989    0.0600
      9 N9         -7.7137   -0.7337   63.5415 N.2     1  ZINC000854704989   -0.3200
     10 O10        -7.9425   -0.2648   62.4507 O.3     1  ZINC000854704989    0.1300
     11 C11       -10.3921   -1.0434   58.9423 C.ar    1  ZINC000854704989   -0.1300
     12 C12       -10.5577   -2.4242   59.0596 C.ar    1  ZINC000854704989   -0.0900
     13 C13       -10.6721   -3.2010   57.9251 C.ar    1  ZINC000854704989   -0.1200
     14 C14       -10.6225   -2.6142   56.6734 C.ar    1  ZINC000854704989   -0.0900
     15 C15       -10.4584   -1.2456   56.5501 C.ar    1  ZINC000854704989   -0.0800
     16 C16       -10.4056   -0.6150   55.1823 C.3     1  ZINC000854704989   -0.0800
     17 H17       -10.4492   -1.3933   54.4205 H       1  ZINC000854704989    0.0900
     18 C18        -9.1019    0.1752   55.0329 C.3     1  ZINC000854704989   -0.1100
     19 C19        -9.0950    0.8745   53.6701 C.3     1  ZINC000854704989   -0.1600
     20 C20       -10.3325    1.7688   53.5579 C.3     1  ZINC000854704989    0.0600
     21 O21       -11.5085    0.9770   53.7368 O.3     1  ZINC000854704989   -0.3800
     22 C22       -11.5934    0.3356   55.0111 C.3     1  ZINC000854704989    0.0700
     23 C23       -10.3486   -0.4569   57.6763 C.ar    1  ZINC000854704989   -0.0500
     24 H24        -8.8200    0.9853   59.4132 H       1  ZINC000854704989    0.4000
     25 H25        -8.5543    2.4490   61.1963 H       1  ZINC000854704989    0.1100
     26 H26       -10.2325    2.0549   61.6394 H       1  ZINC000854704989    0.1000
     27 H27        -9.6793    1.7088   64.2972 H       1  ZINC000854704989    0.1900
     28 H28       -10.5959   -2.8835   60.0363 H       1  ZINC000854704989    0.1200
     29 H29       -10.8004   -4.2696   58.0145 H       1  ZINC000854704989    0.1300
     30 H30       -10.7119   -3.2268   55.7884 H       1  ZINC000854704989    0.1300
     31 H31        -9.0343    0.9204   55.8256 H       1  ZINC000854704989    0.0700
     32 H32        -8.2533   -0.5058   55.0976 H       1  ZINC000854704989    0.0700
     33 H33        -8.1958    1.4837   53.5779 H       1  ZINC000854704989    0.0800
     34 H34        -9.1126    0.1270   52.8771 H       1  ZINC000854704989    0.0700
     35 H35       -10.2938    2.5410   54.3262 H       1  ZINC000854704989    0.0500
     36 H36       -10.3552    2.2361   52.5734 H       1  ZINC000854704989    0.1000
     37 H37       -12.5241   -0.2284   55.0729 H       1  ZINC000854704989    0.1000
     38 H38       -11.5713    1.0883   55.7991 H       1  ZINC000854704989    0.0500
     39 H39       -10.2210    0.6111   57.5787 H       1  ZINC000854704989    0.1400
@<TRIPOS>BOND
     1     1     2    2
     2     2     3   am
     3     2    11    1
     4     3     4    1
     5     3    24    1
     6     4     5    1
     7     4    25    1
     8     4    26    1
     9     5    10    1
    10     5     6    2
    11     6     7    1
    12     6    27    1
    13     7     8    1
    14     7     9    2
    15     9    10    1
    16    11    23   ar
    17    11    12   ar
    18    12    13   ar
    19    12    28    1
    20    13    14   ar
    21    13    29    1
    22    14    15   ar
    23    14    30    1
    24    15    16    1
    25    15    23   ar
    26    16    17    1
    27    16    22    1
    28    16    18    1
    29    18    19    1
    30    18    31    1
    31    18    32    1
    32    19    20    1
    33    19    33    1
    34    19    34    1
    35    20    21    1
    36    20    35    1
    37    20    36    1
    38    21    22    1
    39    22    37    1
    40    22    38    1
    41    23    39    1
@<TRIPOS>SUBSTRUCTURE
     1 ZINC000854704989        1 TEMP              0 ****  ****    0 ROOT


##########                                Name:    ZINC000790735374
##########                DOCK_Rotatable_Bonds:                   5
##########                         Heavy_Atoms:                  25
##########                    Molecular_Weight:             353.445
##########                DOCK_Rotatable_Bonds:                   5
##########                       Formal_Charge:                   0
##########                     HBond_Acceptors:                   6
##########                        HBond_Donors:                   1
##########                         Heavy_Atoms:                  25
##########                          Grid_Score:          -28.391611
##########                     Grid_vdw_energy:          -27.691124
##########                      Grid_es_energy:           -0.700486
##########           Internal_energy_repulsive:            9.313801

@<TRIPOS>MOLECULE
ZINC000790735374
 44 47 1 0 0
SMALL
USER_CHARGES


@<TRIPOS>ATOM
      1 O1         -7.9704    3.4088   58.9220 O.2     1  ZINC000790735374   -0.5100
      2 C2         -7.0169    3.1066   58.2362 C.2     1  ZINC000790735374    0.5000
      3 N3         -6.8515    1.8300   57.8371 N.am    1  ZINC000790735374   -0.7200
      4 C4         -7.8202    0.8062   58.2368 C.3     1  ZINC000790735374    0.1400
      5 C5         -8.9890    0.7968   57.2495 C.3     1  ZINC000790735374   -0.0300
      6 H6         -9.7102    1.5616   57.5375 H       1  ZINC000790735374    0.1100
      7 S7         -8.3693    1.1541   55.5833 S.3     1  ZINC000790735374   -0.2400
      8 C8         -9.8061    0.6752   54.5730 C.3     1  ZINC000790735374   -0.0800
      9 C9        -10.0234   -0.8197   54.7553 C.3     1  ZINC000790735374   -0.0800
     10 C10       -10.1264   -1.2407   56.1937 C.ar    1  ZINC000790735374   -0.0700
     11 C11       -10.7695   -2.4667   56.3943 C.ar    1  ZINC000790735374   -0.1200
     12 C12       -10.9289   -2.9974   57.6527 C.ar    1  ZINC000790735374   -0.1100
     13 C13       -10.4422   -2.3093   58.7486 C.ar    1  ZINC000790735374   -0.1200
     14 C14        -9.8138   -1.0998   58.5588 C.ar    1  ZINC000790735374   -0.1100
     15 C15        -9.6568   -0.5557   57.2799 C.ar    1  ZINC000790735374   -0.0800
     16 C16        -6.0203    4.1597   57.8250 C.3     1  ZINC000790735374    0.0300
     17 H17        -6.5107    5.1222   57.6795 H       1  ZINC000790735374    0.1500
     18 C18        -4.8750    4.2724   58.8593 C.3     1  ZINC000790735374   -0.1400
     19 C19        -3.8180    3.3500   58.2825 C.2     1  ZINC000790735374    0.1200
     20 C20        -2.6426    2.8230   59.0041 C.ar    1  ZINC000790735374   -0.1000
     21 C21        -1.7294    1.9809   58.3583 C.ar    1  ZINC000790735374   -0.0400
     22 C22        -0.6441    1.5146   59.0794 C.ar    1  ZINC000790735374   -0.1700
     23 C23        -0.4975    1.8915   60.4020 C.ar    1  ZINC000790735374    0.1200
     24 N24        -1.3742    2.6866   60.9851 N.ar    1  ZINC000790735374   -0.4800
     25 C25        -2.4198    3.1606   60.3404 C.ar    1  ZINC000790735374    0.1400
     26 N26        -4.1226    3.1049   57.0523 N.2     1  ZINC000790735374   -0.2700
     27 O27        -5.3065    3.7592   56.6378 O.3     1  ZINC000790735374   -0.1600
     28 H28        -6.0910    1.5889   57.2853 H       1  ZINC000790735374    0.4100
     29 H29        -7.3369   -0.1708   58.2371 H       1  ZINC000790735374    0.0800
     30 H30        -8.1914    1.0282   59.2373 H       1  ZINC000790735374    0.0900
     31 H31       -10.6897    1.2201   54.9056 H       1  ZINC000790735374    0.0900
     32 H32        -9.6094    0.8945   53.5236 H       1  ZINC000790735374    0.1100
     33 H33       -10.9420   -1.1038   54.2420 H       1  ZINC000790735374    0.0900
     34 H34        -9.1910   -1.3518   54.2948 H       1  ZINC000790735374    0.0900
     35 H35       -11.1498   -3.0089   55.5411 H       1  ZINC000790735374    0.1200
     36 H36       -11.4309   -3.9445   57.7841 H       1  ZINC000790735374    0.1300
     37 H37       -10.5542   -2.7164   59.7427 H       1  ZINC000790735374    0.1300
     38 H38        -9.4324   -0.5618   59.4140 H       1  ZINC000790735374    0.1300
     39 H39        -4.5053    5.2961   58.9174 H       1  ZINC000790735374    0.1200
     40 H40        -5.2019    3.9218   59.8384 H       1  ZINC000790735374    0.1100
     41 H41        -1.8685    1.7021   57.3243 H       1  ZINC000790735374    0.1500
     42 H42         0.0807    0.8628   58.6142 H       1  ZINC000790735374    0.1500
     43 H43         0.3484    1.5285   60.9670 H       1  ZINC000790735374    0.1600
     44 H44        -3.1155    3.8093   60.8518 H       1  ZINC000790735374    0.1600
@<TRIPOS>BOND
     1     1     2    2
     2     2     3   am
     3     2    16    1
     4     3     4    1
     5     3    28    1
     6     4     5    1
     7     4    29    1
     8     4    30    1
     9     5     6    1
    10     5    15    1
    11     5     7    1
    12     7     8    1
    13     8     9    1
    14     8    31    1
    15     8    32    1
    16     9    10    1
    17     9    33    1
    18     9    34    1
    19    10    15   ar
    20    10    11   ar
    21    11    12   ar
    22    11    35    1
    23    12    13   ar
    24    12    36    1
    25    13    14   ar
    26    13    37    1
    27    14    15   ar
    28    14    38    1
    29    16    17    1
    30    16    27    1
    31    16    18    1
    32    18    19    1
    33    18    39    1
    34    18    40    1
    35    19    20    1
    36    19    26    2
    37    20    25   ar
    38    20    21   ar
    39    21    22   ar
    40    21    41    1
    41    22    23   ar
    42    22    42    1
    43    23    24   ar
    44    23    43    1
    45    24    25   ar
    46    25    44    1
    47    26    27    1
@<TRIPOS>SUBSTRUCTURE
     1 ZINC000790735374        1 TEMP              0 ****  ****    0 ROOT


##########                                Name:    ZINC000461678839
##########                DOCK_Rotatable_Bonds:                   6
##########                         Heavy_Atoms:                  28
##########                    Molecular_Weight:             404.939
##########                DOCK_Rotatable_Bonds:                   6
##########                       Formal_Charge:          -0.0200003
##########                     HBond_Acceptors:                   7
##########                        HBond_Donors:                   0
##########                         Heavy_Atoms:                  28
##########                          Grid_Score:          -28.383476
##########                     Grid_vdw_energy:          -28.490490
##########                      Grid_es_energy:            0.107013
##########           Internal_energy_repulsive:           11.873826

@<TRIPOS>MOLECULE
ZINC000461678839
 57 60 1 0 0
SMALL
USER_CHARGES


@<TRIPOS>ATOM
      1 C1        -14.9631   -3.4305   57.8742 C.3     1  ZINC000461678839   -0.1500
      2 C2        -13.7963   -2.9019   58.7109 C.3     1  ZINC000461678839   -0.0900
      3 H3        -13.6840   -3.5252   59.5980 H       1  ZINC000461678839    0.0700
      4 C4        -14.1061   -1.4528   59.1490 C.3     1  ZINC000461678839   -0.1100
      5 C5        -13.2068   -1.0897   60.3005 C.3     1  ZINC000461678839   -0.1200
      6 C6        -11.8950   -0.4225   59.8498 C.3     1  ZINC000461678839    0.0600
      7 N7        -11.2863   -1.0673   58.6655 N.3     1  ZINC000461678839   -0.4600
      8 C8         -9.9915   -0.6161   58.4649 C.2     1  ZINC000461678839    0.3700
      9 N9         -8.9354   -0.9352   59.1754 N.2     1  ZINC000461678839   -0.3100
     10 N10        -7.8984   -0.3352   58.7098 N.2     1  ZINC000461678839   -0.2500
     11 C11        -8.2286    0.3962   57.6834 C.2     1  ZINC000461678839    0.1700
     12 C12        -7.3001    1.2515   56.8603 C.3     1  ZINC000461678839    0.1500
     13 O13        -6.2729    1.7831   57.6995 O.3     1  ZINC000461678839   -0.3100
     14 C14        -5.3727    2.6195   57.1184 C.ar    1  ZINC000461678839    0.1400
     15 C15        -4.3453    3.1664   57.8730 C.ar    1  ZINC000461678839   -0.2000
     16 C16        -3.4314    4.0164   57.2806 C.ar    1  ZINC000461678839   -0.0700
     17 C17        -3.5406    4.3225   55.9357 C.ar    1  ZINC000461678839   -0.0700
     18 Cl18       -2.3913    5.3912   55.1937 Cl      1  ZINC000461678839   -0.0700
     19 C19        -4.5645    3.7776   55.1813 C.ar    1  ZINC000461678839   -0.0700
     20 C20        -5.4769    2.9228   55.7687 C.ar    1  ZINC000461678839   -0.1400
     21 N21        -9.5729    0.2392   57.4876 N.pl3   1  ZINC000461678839   -0.4600
     22 C22       -10.3946    0.8661   56.4494 C.3     1  ZINC000461678839    0.1200
     23 C23       -10.7488   -0.1723   55.3831 C.3     1  ZINC000461678839   -0.1400
     24 H24       -11.1652   -1.0668   55.8465 H       1  ZINC000461678839    0.0900
     25 C25        -9.5012   -0.5298   54.5394 C.3     1  ZINC000461678839   -0.1500
     26 C26       -10.0913   -0.6191   53.1089 C.3     1  ZINC000461678839    0.0500
     27 O27       -11.0776    0.4350   53.0851 O.3     1  ZINC000461678839   -0.3700
     28 C28       -11.7416    0.4188   54.3634 C.3     1  ZINC000461678839    0.0400
     29 C29       -11.3314   -2.5092   58.7043 C.3     1  ZINC000461678839    0.0700
     30 C30       -12.5725   -2.9742   57.9204 C.3     1  ZINC000461678839   -0.1100
     31 H31       -14.7601   -4.4594   57.5769 H       1  ZINC000461678839    0.0500
     32 H32       -15.8784   -3.3970   58.4651 H       1  ZINC000461678839    0.0500
     33 H33       -15.0819   -2.8118   56.9846 H       1  ZINC000461678839    0.0600
     34 H34       -13.9255   -0.7730   58.3162 H       1  ZINC000461678839    0.0700
     35 H35       -15.1476   -1.3807   59.4624 H       1  ZINC000461678839    0.0700
     36 H36       -13.7403   -0.4053   60.9602 H       1  ZINC000461678839    0.0800
     37 H37       -12.9669   -1.9952   60.8576 H       1  ZINC000461678839    0.0700
     38 H38       -12.0972    0.6223   59.6138 H       1  ZINC000461678839    0.0700
     39 H39       -11.1823   -0.4607   60.6736 H       1  ZINC000461678839    0.0500
     40 H40        -6.8497    0.6459   56.0739 H       1  ZINC000461678839    0.0800
     41 H41        -7.8626    2.0701   56.4114 H       1  ZINC000461678839    0.1000
     42 H42        -4.2600    2.9284   58.9230 H       1  ZINC000461678839    0.1400
     43 H43        -2.6312    4.4424   57.8678 H       1  ZINC000461678839    0.1400
     44 H44        -4.6480    4.0173   54.1316 H       1  ZINC000461678839    0.1400
     45 H45        -6.2761    2.4975   55.1796 H       1  ZINC000461678839    0.1400
     46 H46       -11.3097    1.2552   56.8959 H       1  ZINC000461678839    0.1100
     47 H47        -9.8385    1.6834   55.9902 H       1  ZINC000461678839    0.1000
     48 H48        -8.7504    0.2579   54.6019 H       1  ZINC000461678839    0.0800
     49 H49        -9.0841   -1.4882   54.8484 H       1  ZINC000461678839    0.0900
     50 H50        -9.3177   -0.4378   52.3626 H       1  ZINC000461678839    0.1000
     51 H51       -10.5619   -1.5889   52.9476 H       1  ZINC000461678839    0.0600
     52 H52       -12.6354   -0.2025   54.3089 H       1  ZINC000461678839    0.0500
     53 H53       -12.0106    1.4342   54.6542 H       1  ZINC000461678839    0.1100
     54 H54       -10.4315   -2.9173   58.2441 H       1  ZINC000461678839    0.0900
     55 H55       -11.4013   -2.8468   59.7383 H       1  ZINC000461678839    0.0600
     56 H56       -12.4215   -4.0055   57.6015 H       1  ZINC000461678839    0.0700
     57 H57       -12.6855   -2.3474   57.0358 H       1  ZINC000461678839    0.0700
@<TRIPOS>BOND
     1     1     2    1
     2     1    31    1
     3     1    32    1
     4     1    33    1
     5     2     3    1
     6     2    30    1
     7     2     4    1
     8     4     5    1
     9     4    34    1
    10     4    35    1
    11     5     6    1
    12     5    36    1
    13     5    37    1
    14     6     7    1
    15     6    38    1
    16     6    39    1
    17     7     8    1
    18     7    29    1
    19     8    21    1
    20     8     9    2
    21     9    10    1
    22    10    11    2
    23    11    12    1
    24    11    21    1
    25    12    13    1
    26    12    40    1
    27    12    41    1
    28    13    14    1
    29    14    20   ar
    30    14    15   ar
    31    15    16   ar
    32    15    42    1
    33    16    17   ar
    34    16    43    1
    35    17    18    1
    36    17    19   ar
    37    19    20   ar
    38    19    44    1
    39    20    45    1
    40    21    22    1
    41    22    23    1
    42    22    46    1
    43    22    47    1
    44    23    24    1
    45    23    28    1
    46    23    25    1
    47    25    26    1
    48    25    48    1
    49    25    49    1
    50    26    27    1
    51    26    50    1
    52    26    51    1
    53    27    28    1
    54    28    52    1
    55    28    53    1
    56    29    30    1
    57    29    54    1
    58    29    55    1
    59    30    56    1
    60    30    57    1
@<TRIPOS>SUBSTRUCTURE
     1 ZINC000461678839        1 TEMP              0 ****  ****    0 ROOT


##########                                Name:    ZINC001300804061
##########                DOCK_Rotatable_Bonds:                   5
##########                         Heavy_Atoms:                  27
##########                    Molecular_Weight:              390.55
##########                DOCK_Rotatable_Bonds:                   5
##########                       Formal_Charge:                0.01
##########                     HBond_Acceptors:                   7
##########                        HBond_Donors:                   0
##########                         Heavy_Atoms:                  27
##########                          Grid_Score:          -28.365185
##########                     Grid_vdw_energy:          -28.704144
##########                      Grid_es_energy:            0.338959
##########           Internal_energy_repulsive:           11.572930

@<TRIPOS>MOLECULE
ZINC001300804061
 57 60 1 0 0
SMALL
USER_CHARGES


@<TRIPOS>ATOM
      1 C1        -11.0612   -0.4671   53.8877 C.3     1  ZINC001300804061    0.0300
      2 O2        -10.3611    0.7698   53.7390 O.3     1  ZINC001300804061   -0.3800
      3 C3         -9.1688    0.8605   54.5214 C.3     1  ZINC001300804061    0.1000
      4 H4         -8.7519   -0.1362   54.6663 H       1  ZINC001300804061    0.0700
      5 C5         -9.4963    1.4800   55.8819 C.3     1  ZINC001300804061    0.0500
      6 N6         -8.2678    1.5928   56.6784 N.3     1  ZINC001300804061   -0.4600
      7 C7         -8.5472    2.0283   57.9626 C.2     1  ZINC001300804061    0.3600
      8 N8         -8.6976    3.2752   58.3463 N.2     1  ZINC001300804061   -0.3000
      9 N9         -8.9495    3.3237   59.6055 N.2     1  ZINC001300804061   -0.2500
     10 C10        -8.9755    2.1072   60.1044 C.2     1  ZINC001300804061    0.2600
     11 C11        -9.2309    1.7414   61.5064 C.2     1  ZINC001300804061    0.0400
     12 C12       -10.2242    2.2395   62.2950 C.2     1  ZINC001300804061   -0.1300
     13 C13       -10.0957    1.6157   63.5511 C.2     1  ZINC001300804061   -0.2100
     14 C14        -9.0436    0.7771   63.4706 C.2     1  ZINC001300804061    0.0100
     15 C15        -8.5349   -0.1027   64.5834 C.3     1  ZINC001300804061   -0.0800
     16 O16        -8.5270    0.8509   62.2329 O.3     1  ZINC001300804061   -0.1700
     17 N17        -8.7237    1.2401   59.0641 N.pl3   1  ZINC001300804061   -0.4600
     18 C18        -8.6517   -0.2217   59.1277 C.3     1  ZINC001300804061    0.1200
     19 C19       -10.0365   -0.8129   58.8566 C.3     1  ZINC001300804061   -0.1000
     20 H20       -10.5699   -0.1762   58.1506 H       1  ZINC001300804061    0.0900
     21 C21       -10.8203   -0.8872   60.1636 C.3     1  ZINC001300804061   -0.1200
     22 C22       -12.2858   -1.2175   59.8964 C.3     1  ZINC001300804061   -0.1200
     23 C23       -12.4176   -2.6699   59.4306 C.3     1  ZINC001300804061   -0.0800
     24 S24       -11.5316   -2.8639   57.8556 S.3     1  ZINC001300804061   -0.2600
     25 C25        -9.8830   -2.2149   58.2612 C.3     1  ZINC001300804061   -0.0700
     26 C26        -7.2906    2.4730   56.0252 C.3     1  ZINC001300804061    0.0600
     27 C27        -6.8972    1.8832   54.6690 C.3     1  ZINC001300804061   -0.1100
     28 C28        -8.1475    1.7414   53.7966 C.3     1  ZINC001300804061   -0.0900
     29 H29        -8.5795    2.7258   53.6165 H       1  ZINC001300804061    0.0800
     30 C30        -7.7690    1.0973   52.4614 C.3     1  ZINC001300804061   -0.1400
     31 H31       -10.4139   -1.2898   53.5840 H       1  ZINC001300804061    0.0400
     32 H32       -11.3501   -0.5979   54.9305 H       1  ZINC001300804061    0.0400
     33 H33       -11.9536   -0.4569   53.2620 H       1  ZINC001300804061    0.0900
     34 H34        -9.9266    2.4708   55.7357 H       1  ZINC001300804061    0.0700
     35 H35       -10.2122    0.8471   56.4063 H       1  ZINC001300804061    0.0800
     36 H36       -10.9662    2.9714   62.0118 H       1  ZINC001300804061    0.1600
     37 H37       -10.7220    1.7787   64.4157 H       1  ZINC001300804061    0.1600
     38 H38        -9.0373   -1.0691   64.5410 H       1  ZINC001300804061    0.0900
     39 H39        -7.4603   -0.2466   64.4706 H       1  ZINC001300804061    0.0800
     40 H40        -8.7392    0.3712   65.5435 H       1  ZINC001300804061    0.0900
     41 H41        -7.9489   -0.5838   58.3773 H       1  ZINC001300804061    0.1100
     42 H42        -8.3142   -0.5261   60.1185 H       1  ZINC001300804061    0.1000
     43 H43       -10.3878   -1.6610   60.7979 H       1  ZINC001300804061    0.0700
     44 H44       -10.7564    0.0729   60.6756 H       1  ZINC001300804061    0.0800
     45 H45       -12.8611   -1.0773   60.8115 H       1  ZINC001300804061    0.0800
     46 H46       -12.6713   -0.5531   59.1231 H       1  ZINC001300804061    0.0800
     47 H47       -11.9834   -3.3340   60.1780 H       1  ZINC001300804061    0.0800
     48 H48       -13.4705   -2.9142   59.2899 H       1  ZINC001300804061    0.1100
     49 H49        -9.2789   -2.1608   57.3556 H       1  ZINC001300804061    0.1000
     50 H50        -9.4005   -2.8708   58.9858 H       1  ZINC001300804061    0.0900
     51 H51        -7.7311    3.4591   55.8783 H       1  ZINC001300804061    0.0600
     52 H52        -6.4043    2.5613   56.6537 H       1  ZINC001300804061    0.0800
     53 H53        -6.1836    2.5446   54.1777 H       1  ZINC001300804061    0.0800
     54 H54        -6.4438    0.9029   54.8162 H       1  ZINC001300804061    0.0800
     55 H55        -7.3392    0.1121   52.6422 H       1  ZINC001300804061    0.0500
     56 H56        -8.6596    0.9968   51.8411 H       1  ZINC001300804061    0.0600
     57 H57        -7.0387    1.7240   51.9497 H       1  ZINC001300804061    0.0600
@<TRIPOS>BOND
     1     1     2    1
     2     1    31    1
     3     1    32    1
     4     1    33    1
     5     2     3    1
     6     3     4    1
     7     3    28    1
     8     3     5    1
     9     5     6    1
    10     5    34    1
    11     5    35    1
    12     6     7    1
    13     6    26    1
    14     7    17    1
    15     7     8    2
    16     8     9    1
    17     9    10    2
    18    10    11    1
    19    10    17    1
    20    11    16    1
    21    11    12    2
    22    12    13    1
    23    12    36    1
    24    13    14    2
    25    13    37    1
    26    14    15    1
    27    14    16    1
    28    15    38    1
    29    15    39    1
    30    15    40    1
    31    17    18    1
    32    18    19    1
    33    18    41    1
    34    18    42    1
    35    19    20    1
    36    19    25    1
    37    19    21    1
    38    21    22    1
    39    21    43    1
    40    21    44    1
    41    22    23    1
    42    22    45    1
    43    22    46    1
    44    23    24    1
    45    23    47    1
    46    23    48    1
    47    24    25    1
    48    25    49    1
    49    25    50    1
    50    26    27    1
    51    26    51    1
    52    26    52    1
    53    27    28    1
    54    27    53    1
    55    27    54    1
    56    28    29    1
    57    28    30    1
    58    30    55    1
    59    30    56    1
    60    30    57    1
@<TRIPOS>SUBSTRUCTURE
     1 ZINC001300804061        1 TEMP              0 ****  ****    0 ROOT


##########                                Name:    ZINC000081577146
##########                DOCK_Rotatable_Bonds:                   4
##########                         Heavy_Atoms:                  25
##########                    Molecular_Weight:             355.464
##########                DOCK_Rotatable_Bonds:                   4
##########                       Formal_Charge:                0.02
##########                     HBond_Acceptors:                   7
##########                        HBond_Donors:                   0
##########                         Heavy_Atoms:                  25
##########                          Grid_Score:          -28.353481
##########                     Grid_vdw_energy:          -27.442610
##########                      Grid_es_energy:           -0.910872
##########           Internal_energy_repulsive:           10.603865

@<TRIPOS>MOLECULE
ZINC000081577146
 46 49 1 0 0
SMALL
USER_CHARGES


@<TRIPOS>ATOM
      1 C1         -5.5494    2.5314   51.5618 C.3     1  ZINC000081577146   -0.0700
      2 C2         -6.9363    2.2970   52.1028 C.2     1  ZINC000081577146    0.2900
      3 N3         -7.9644    2.9228   51.6084 N.2     1  ZINC000081577146   -0.4800
      4 S4         -9.3080    2.3742   52.4928 S.3     1  ZINC000081577146    0.1900
      5 C5         -8.3897    1.3149   53.4946 C.2     1  ZINC000081577146    0.2700
      6 N6         -8.8581    0.4958   54.5060 N.3     1  ZINC000081577146   -0.4300
      7 C7         -9.5284   -0.6903   53.9552 C.3     1  ZINC000081577146    0.0700
      8 C8         -9.9604   -1.6074   55.1018 C.3     1  ZINC000081577146    0.0500
      9 N9        -10.8567   -0.8708   56.0037 N.3     1  ZINC000081577146   -0.5200
     10 C10       -11.3540   -1.7407   57.0778 C.3     1  ZINC000081577146    0.1900
     11 H11       -11.3190   -2.7796   56.7497 H       1  ZINC000081577146    0.0700
     12 C12       -12.7973   -1.3607   57.4147 C.3     1  ZINC000081577146   -0.1500
     13 C13       -10.4912   -1.5712   58.3016 C.2     1  ZINC000081577146    0.1900
     14 N14        -9.3669   -2.1915   58.5267 N.2     1  ZINC000081577146   -0.4500
     15 C15        -8.8800   -1.7926   59.7112 C.2     1  ZINC000081577146   -0.0200
     16 C16        -9.7510   -0.8880   60.2274 C.2     1  ZINC000081577146    0.0000
     17 C17        -9.6240   -0.1804   61.5191 C.ar    1  ZINC000081577146   -0.0200
     18 C18        -8.5189   -0.4122   62.3395 C.ar    1  ZINC000081577146   -0.1000
     19 C19        -8.4063    0.2518   63.5436 C.ar    1  ZINC000081577146   -0.1200
     20 C20        -9.3859    1.1454   63.9386 C.ar    1  ZINC000081577146   -0.1100
     21 C21       -10.4840    1.3792   63.1302 C.ar    1  ZINC000081577146   -0.1100
     22 C22       -10.6058    0.7265   61.9209 C.ar    1  ZINC000081577146   -0.0900
     23 O23       -10.7533   -0.7544   59.3310 O.3     1  ZINC000081577146   -0.2000
     24 C24       -10.1864    0.3154   56.5546 C.3     1  ZINC000081577146    0.0600
     25 C25        -9.7543    1.2325   55.4079 C.3     1  ZINC000081577146    0.0500
     26 N26        -7.1464    1.4508   53.0843 N.2     1  ZINC000081577146   -0.5400
     27 H27        -5.3531    1.8315   50.7496 H       1  ZINC000081577146    0.0900
     28 H28        -5.4730    3.5524   51.1878 H       1  ZINC000081577146    0.0900
     29 H29        -4.8189    2.3799   52.3565 H       1  ZINC000081577146    0.0900
     30 H30       -10.4055   -0.3811   53.3866 H       1  ZINC000081577146    0.0700
     31 H31        -8.8405   -1.2257   53.3007 H       1  ZINC000081577146    0.1100
     32 H32       -10.4834   -2.4738   54.6971 H       1  ZINC000081577146    0.1000
     33 H33        -9.0807   -1.9385   55.6538 H       1  ZINC000081577146    0.0600
     34 H34       -12.8324   -0.3220   57.7430 H       1  ZINC000081577146    0.0800
     35 H35       -13.4214   -1.4834   56.5295 H       1  ZINC000081577146    0.0800
     36 H36       -13.1663   -2.0062   58.2117 H       1  ZINC000081577146    0.0700
     37 H37        -7.9625   -2.1295   60.1706 H       1  ZINC000081577146    0.1900
     38 H38        -7.7538   -1.1099   62.0326 H       1  ZINC000081577146    0.1300
     39 H39        -7.5516    0.0734   64.1794 H       1  ZINC000081577146    0.1300
     40 H40        -9.2931    1.6623   64.8823 H       1  ZINC000081577146    0.1300
     41 H41       -11.2456    2.0775   63.4448 H       1  ZINC000081577146    0.1300
     42 H42       -11.4634    0.9103   61.2906 H       1  ZINC000081577146    0.1300
     43 H43       -10.8742    0.8507   57.2090 H       1  ZINC000081577146    0.0900
     44 H44        -9.3092    0.0062   57.1231 H       1  ZINC000081577146    0.0500
     45 H45        -9.2313    2.0989   55.8126 H       1  ZINC000081577146    0.1000
     46 H46       -10.6340    1.5635   54.8559 H       1  ZINC000081577146    0.0800
@<TRIPOS>BOND
     1     1     2    1
     2     1    27    1
     3     1    28    1
     4     1    29    1
     5     2    26    1
     6     2     3    2
     7     3     4    1
     8     4     5    1
     9     5     6    1
    10     5    26    2
    11     6    25    1
    12     6     7    1
    13     7     8    1
    14     7    30    1
    15     7    31    1
    16     8     9    1
    17     8    32    1
    18     8    33    1
    19     9    10    1
    20     9    24    1
    21    10    11    1
    22    10    12    1
    23    10    13    1
    24    12    34    1
    25    12    35    1
    26    12    36    1
    27    13    23    1
    28    13    14    2
    29    14    15    1
    30    15    16    2
    31    15    37    1
    32    16    17    1
    33    16    23    1
    34    17    22   ar
    35    17    18   ar
    36    18    19   ar
    37    18    38    1
    38    19    20   ar
    39    19    39    1
    40    20    21   ar
    41    20    40    1
    42    21    22   ar
    43    21    41    1
    44    22    42    1
    45    24    25    1
    46    24    43    1
    47    24    44    1
    48    25    45    1
    49    25    46    1
@<TRIPOS>SUBSTRUCTURE
     1 ZINC000081577146        1 TEMP              0 ****  ****    0 ROOT


##########                                Name:    ZINC001079355651
##########                DOCK_Rotatable_Bonds:                   5
##########                         Heavy_Atoms:                  25
##########                    Molecular_Weight:             353.851
##########                DOCK_Rotatable_Bonds:                   5
##########                       Formal_Charge:           0.0199997
##########                     HBond_Acceptors:                   5
##########                        HBond_Donors:                   1
##########                         Heavy_Atoms:                  25
##########                          Grid_Score:          -28.352755
##########                     Grid_vdw_energy:          -27.652367
##########                      Grid_es_energy:           -0.700389
##########           Internal_energy_repulsive:            6.824230

@<TRIPOS>MOLECULE
ZINC001079355651
 45 47 1 0 0
SMALL
USER_CHARGES


@<TRIPOS>ATOM
      1 C1        -10.1124    2.9155   56.1484 C.3     1  ZINC001079355651   -0.1500
      2 C2         -8.9272    1.9494   56.0912 C.3     1  ZINC001079355651   -0.1000
      3 H3         -8.6956    1.6962   55.0567 H       1  ZINC001079355651    0.0900
      4 C4         -9.2379    0.6712   56.8994 C.3     1  ZINC001079355651    0.0300
      5 N5         -7.9474    0.3110   57.5409 N.3     1  ZINC001079355651   -0.5100
      6 C6         -8.1629   -0.5569   58.7063 C.3     1  ZINC001079355651    0.1600
      7 C7         -9.4155   -1.3101   58.5321 C.1     1  ZINC001079355651   -0.1400
      8 C8        -10.4146   -1.9109   58.3932 C.1     1  ZINC001079355651   -0.1300
      9 C9        -11.6332   -2.6436   58.2239 C.ar    1  ZINC001079355651    0.0300
     10 C10       -11.7426   -3.5962   57.2103 C.ar    1  ZINC001079355651   -0.0900
     11 C11       -12.9194   -4.2993   57.0516 C.ar    1  ZINC001079355651   -0.1000
     12 C12       -13.9897   -4.0618   57.8948 C.ar    1  ZINC001079355651   -0.1000
     13 C13       -13.8883   -3.1175   58.9026 C.ar    1  ZINC001079355651   -0.0300
     14 Cl14      -15.2373   -2.8258   59.9556 Cl      1  ZINC001079355651   -0.0600
     15 C15       -12.7141   -2.4119   59.0753 C.ar    1  ZINC001079355651   -0.0900
     16 C16        -7.3659    1.6157   57.9490 C.3     1  ZINC001079355651    0.0200
     17 C17        -7.6950    2.5718   56.7794 C.3     1  ZINC001079355651    0.1500
     18 H18        -7.9347    3.5653   57.1585 H       1  ZINC001079355651    0.1000
     19 N19        -6.5670    2.6425   55.8471 N.am    1  ZINC001079355651   -0.7100
     20 C20        -5.4679    3.3518   56.1719 C.2     1  ZINC001079355651    0.5600
     21 O21        -5.4119    3.9314   57.2383 O.2     1  ZINC001079355651   -0.5300
     22 C22        -4.3279    3.4247   55.2283 C.ar    1  ZINC001079355651   -0.0900
     23 C23        -4.5089    3.1848   53.8629 C.ar    1  ZINC001079355651   -0.1400
     24 C24        -3.4182    3.2633   53.0188 C.ar    1  ZINC001079355651    0.1000
     25 N25        -2.2213    3.5593   53.4850 N.ar    1  ZINC001079355651   -0.4700
     26 C26        -2.0072    3.7925   54.7646 C.ar    1  ZINC001079355651    0.1000
     27 C27        -3.0423    3.7409   55.6779 C.ar    1  ZINC001079355651   -0.1200
     28 H28        -9.8595    3.8326   55.6164 H       1  ZINC001079355651    0.0600
     29 H29       -10.9815    2.4523   55.6814 H       1  ZINC001079355651    0.0700
     30 H30       -10.3403    3.1497   57.1882 H       1  ZINC001079355651    0.0600
     31 H31        -9.9951    0.8749   57.6566 H       1  ZINC001079355651    0.0600
     32 H32        -9.5684   -0.1274   56.2352 H       1  ZINC001079355651    0.0900
     33 H33        -7.3299   -1.2537   58.7994 H       1  ZINC001079355651    0.0700
     34 H34        -8.2283    0.0536   59.6069 H       1  ZINC001079355651    0.1100
     35 H35       -10.9080   -3.7826   56.5507 H       1  ZINC001079355651    0.1300
     36 H36       -13.0050   -5.0365   56.2671 H       1  ZINC001079355651    0.1400
     37 H37       -14.9085   -4.6147   57.7663 H       1  ZINC001079355651    0.1400
     38 H38       -12.6357   -1.6757   59.8616 H       1  ZINC001079355651    0.1400
     39 H39        -7.8301    1.9672   58.8705 H       1  ZINC001079355651    0.0600
     40 H40        -6.2868    1.5282   58.0752 H       1  ZINC001079355651    0.0900
     41 H41        -6.6111    2.1788   54.9963 H       1  ZINC001079355651    0.4000
     42 H42        -5.4866    2.9414   53.4739 H       1  ZINC001079355651    0.1400
     43 H43        -3.5478    3.0794   51.9624 H       1  ZINC001079355651    0.1600
     44 H44        -1.0097    4.0312   55.1028 H       1  ZINC001079355651    0.1700
     45 H45        -2.8596    3.9331   56.7249 H       1  ZINC001079355651    0.1500
@<TRIPOS>BOND
     1     1     2    1
     2     1    28    1
     3     1    29    1
     4     1    30    1
     5     2     3    1
     6     2    17    1
     7     2     4    1
     8     4     5    1
     9     4    31    1
    10     4    32    1
    11     5     6    1
    12     5    16    1
    13     6     7    1
    14     6    33    1
    15     6    34    1
    16     7     8    3
    17     8     9    1
    18     9    15   ar
    19     9    10   ar
    20    10    11   ar
    21    10    35    1
    22    11    12   ar
    23    11    36    1
    24    12    13   ar
    25    12    37    1
    26    13    14    1
    27    13    15   ar
    28    15    38    1
    29    16    17    1
    30    16    39    1
    31    16    40    1
    32    17    18    1
    33    17    19    1
    34    19    20   am
    35    19    41    1
    36    20    21    2
    37    20    22    1
    38    22    27   ar
    39    22    23   ar
    40    23    24   ar
    41    23    42    1
    42    24    25   ar
    43    24    43    1
    44    25    26   ar
    45    26    27   ar
    46    26    44    1
    47    27    45    1
@<TRIPOS>SUBSTRUCTURE
     1 ZINC001079355651        1 TEMP              0 ****  ****    0 ROOT


##########                                Name:    ZINC001067316277
##########                DOCK_Rotatable_Bonds:                   5
##########                         Heavy_Atoms:                  24
##########                    Molecular_Weight:             345.469
##########                DOCK_Rotatable_Bonds:                   5
##########                       Formal_Charge:          -0.0200007
##########                     HBond_Acceptors:                   7
##########                        HBond_Donors:                   2
##########                         Heavy_Atoms:                  24
##########                          Grid_Score:          -28.350698
##########                     Grid_vdw_energy:          -29.050587
##########                      Grid_es_energy:            0.699888
##########           Internal_energy_repulsive:            9.045548

@<TRIPOS>MOLECULE
ZINC001067316277
 47 49 1 0 0
SMALL
USER_CHARGES


@<TRIPOS>ATOM
      1 C1        -14.6705    0.1947   60.7599 C.3     1  ZINC001067316277   -0.1400
      2 S2        -15.4085   -1.4540   60.8740 S.3     1  ZINC001067316277   -0.0400
      3 C3        -14.5898   -2.2493   59.5317 C.ar    1  ZINC001067316277    0.1800
      4 C4        -14.9925   -3.5179   59.1072 C.ar    1  ZINC001067316277   -0.2400
      5 C5        -14.3219   -4.1027   58.0512 C.ar    1  ZINC001067316277    0.1900
      6 N6        -13.3233   -3.4491   57.4753 N.ar    1  ZINC001067316277   -0.5600
      7 C7        -12.9622   -2.2464   57.8985 C.ar    1  ZINC001067316277    0.5100
      8 N8        -11.9142   -1.5966   57.2702 N.3     1  ZINC001067316277   -0.4600
      9 C9        -11.1562   -2.5219   56.4184 C.3     1  ZINC001067316277    0.0700
     10 C10        -9.9248   -1.8077   55.8566 C.3     1  ZINC001067316277   -0.1300
     11 C11       -10.3735   -0.5890   55.0454 C.3     1  ZINC001067316277    0.1600
     12 H12       -10.9803   -0.9167   54.2013 H       1  ZINC001067316277    0.0900
     13 N13        -9.1969    0.1311   54.5522 N.am    1  ZINC001067316277   -0.7200
     14 C14        -8.8024   -0.0191   53.2723 C.2     1  ZINC001067316277    0.5900
     15 O15        -9.4227   -0.7539   52.5266 O.2     1  ZINC001067316277   -0.5300
     16 C16        -7.6254    0.7033   52.7781 C.2     1  ZINC001067316277   -0.0600
     17 C17        -6.7137    1.3972   53.5450 C.2     1  ZINC001067316277   -0.1000
     18 C18        -5.7597    1.9266   52.6704 C.2     1  ZINC001067316277   -0.2100
     19 C19        -6.0978    1.5552   51.4124 C.2     1  ZINC001067316277    0.0300
     20 N20        -7.2266    0.8068   51.4647 N.pl3   1  ZINC001067316277   -0.5400
     21 C21       -11.2016    0.3348   55.9428 C.3     1  ZINC001067316277   -0.0700
     22 C22       -10.3333    0.8379   57.0977 C.3     1  ZINC001067316277   -0.1400
     23 C23       -11.7037    1.5262   55.1245 C.3     1  ZINC001067316277   -0.1400
     24 C24       -12.3960   -0.4416   56.5020 C.3     1  ZINC001067316277    0.0800
     25 N25       -13.5827   -1.6484   58.9040 N.ar    1  ZINC001067316277   -0.5400
     26 H26       -13.5901    0.1185   60.8826 H       1  ZINC001067316277    0.0900
     27 H27       -14.8958    0.6270   59.7850 H       1  ZINC001067316277    0.0900
     28 H28       -15.0810    0.8317   61.5434 H       1  ZINC001067316277    0.1000
     29 H29       -15.8095   -4.0297   59.5940 H       1  ZINC001067316277    0.1500
     30 H30       -14.6079   -5.0827   57.6986 H       1  ZINC001067316277    0.1700
     31 H31       -10.8394   -3.3820   57.0084 H       1  ZINC001067316277    0.1000
     32 H32       -11.7876   -2.8585   55.5961 H       1  ZINC001067316277    0.0500
     33 H33        -9.2861   -1.4830   56.6781 H       1  ZINC001067316277    0.0800
     34 H34        -9.3709   -2.4901   55.2120 H       1  ZINC001067316277    0.0800
     35 H35        -8.7017    0.7160   55.1470 H       1  ZINC001067316277    0.3900
     36 H36        -6.7329    1.5108   54.6188 H       1  ZINC001067316277    0.1500
     37 H37        -4.9052    2.5257   52.9484 H       1  ZINC001067316277    0.1500
     38 H38        -5.5544    1.8105   50.5146 H       1  ZINC001067316277    0.1700
     39 H39        -7.6810    0.4143   50.7028 H       1  ZINC001067316277    0.4100
     40 H40        -9.4809    1.3878   56.6987 H       1  ZINC001067316277    0.0500
     41 H41       -10.9233    1.4955   57.7361 H       1  ZINC001067316277    0.0600
     42 H42        -9.9771   -0.0111   57.6810 H       1  ZINC001067316277    0.0700
     43 H43       -12.3233    1.1673   54.3028 H       1  ZINC001067316277    0.0600
     44 H44       -12.2930    2.1835   55.7638 H       1  ZINC001067316277    0.0600
     45 H45       -10.8522    2.0766   54.7241 H       1  ZINC001067316277    0.0600
     46 H46       -13.0215   -0.7878   55.6794 H       1  ZINC001067316277    0.0600
     47 H47       -12.9798    0.2095   57.1529 H       1  ZINC001067316277    0.1000
@<TRIPOS>BOND
     1     1     2    1
     2     1    26    1
     3     1    27    1
     4     1    28    1
     5     2     3    1
     6     3    25   ar
     7     3     4   ar
     8     4     5   ar
     9     4    29    1
    10     5     6   ar
    11     5    30    1
    12     6     7   ar
    13     7     8    1
    14     7    25   ar
    15     8    24    1
    16     8     9    1
    17     9    10    1
    18     9    31    1
    19     9    32    1
    20    10    11    1
    21    10    33    1
    22    10    34    1
    23    11    12    1
    24    11    13    1
    25    11    21    1
    26    13    14   am
    27    13    35    1
    28    14    15    2
    29    14    16    1
    30    16    20    1
    31    16    17    2
    32    17    18    1
    33    17    36    1
    34    18    19    2
    35    18    37    1
    36    19    20    1
    37    19    38    1
    38    20    39    1
    39    21    22    1
    40    21    23    1
    41    21    24    1
    42    22    40    1
    43    22    41    1
    44    22    42    1
    45    23    43    1
    46    23    44    1
    47    23    45    1
    48    24    46    1
    49    24    47    1
@<TRIPOS>SUBSTRUCTURE
     1 ZINC001067316277        1 TEMP              0 ****  ****    0 ROOT


##########                                Name:    ZINC000859608860
##########                DOCK_Rotatable_Bonds:                   8
##########                         Heavy_Atoms:                  24
##########                    Molecular_Weight:             394.268
##########                DOCK_Rotatable_Bonds:                   8
##########                       Formal_Charge:          -0.0200003
##########                     HBond_Acceptors:                   6
##########                        HBond_Donors:                   1
##########                         Heavy_Atoms:                  24
##########                          Grid_Score:          -28.334749
##########                     Grid_vdw_energy:          -27.403410
##########                      Grid_es_energy:           -0.931340
##########           Internal_energy_repulsive:           12.564307

@<TRIPOS>MOLECULE
ZINC000859608860
 44 45 1 0 0
SMALL
USER_CHARGES


@<TRIPOS>ATOM
      1 C1        -11.0317    1.9664   62.6353 C.3     1  ZINC000859608860   -0.1400
      2 C2        -10.0106    2.8533   61.9199 C.3     1  ZINC000859608860   -0.0800
      3 C3        -10.6923    3.5829   60.7606 C.3     1  ZINC000859608860   -0.1400
      4 C4         -9.4458    3.8780   62.9058 C.3     1  ZINC000859608860   -0.1400
      5 C5         -8.8727    1.9859   61.3780 C.3     1  ZINC000859608860    0.1300
      6 N6         -9.4303    0.8938   60.5764 N.am    1  ZINC000859608860   -0.7300
      7 C7         -9.4663   -0.3578   61.0751 C.2     1  ZINC000859608860    0.5100
      8 O8         -9.0357   -0.5802   62.1868 O.2     1  ZINC000859608860   -0.5100
      9 C9        -10.0416   -1.4809   60.2513 C.3     1  ZINC000859608860    0.0500
     10 O10       -11.4293   -1.1900   59.9382 O.3     1  ZINC000859608860   -0.3100
     11 C11       -11.9725   -1.8488   58.8952 C.2     1  ZINC000859608860    0.5600
     12 O12       -13.0655   -2.3685   59.0073 O.2     1  ZINC000859608860   -0.5100
     13 C13       -11.2422   -1.9389   57.6209 C.2     1  ZINC000859608860   -0.0400
     14 C14       -10.6358   -0.9069   56.9642 C.2     1  ZINC000859608860    0.0500
     15 N15       -10.0833   -1.4302   55.8361 N.pl3   1  ZINC000859608860   -0.4100
     16 C16        -9.3605   -0.7245   54.8634 C.ar    1  ZINC000859608860    0.1400
     17 C17        -8.8080    0.5120   55.1687 C.ar    1  ZINC000859608860   -0.1200
     18 C18        -8.0961    1.2049   54.2092 C.ar    1  ZINC000859608860   -0.0600
     19 C19        -7.9334    0.6676   52.9446 C.ar    1  ZINC000859608860   -0.1000
     20 Br20       -6.9581    1.6191   51.6333 Br      1  ZINC000859608860   -0.0300
     21 C21        -8.4826   -0.5646   52.6380 C.ar    1  ZINC000859608860   -0.0600
     22 C22        -9.1913   -1.2637   53.5954 C.ar    1  ZINC000859608860   -0.1200
     23 C23       -10.3595   -2.7631   55.8230 C.2     1  ZINC000859608860    0.2000
     24 N24       -11.0441   -3.0648   56.8879 N.2     1  ZINC000859608860   -0.4300
     25 H25       -11.4342    1.2364   61.9330 H       1  ZINC000859608860    0.0500
     26 H26       -10.5461    1.4467   63.4612 H       1  ZINC000859608860    0.0600
     27 H27       -11.8424    2.5844   63.0214 H       1  ZINC000859608860    0.0600
     28 H28       -11.5029    4.2008   61.1467 H       1  ZINC000859608860    0.0600
     29 H29        -9.9649    4.2148   60.2510 H       1  ZINC000859608860    0.0600
     30 H30       -11.0947    2.8529   60.0583 H       1  ZINC000859608860    0.0500
     31 H31        -8.9601    3.3582   63.7316 H       1  ZINC000859608860    0.0600
     32 H32        -8.7183    4.5098   62.3961 H       1  ZINC000859608860    0.0600
     33 H33       -10.2565    4.4959   63.2918 H       1  ZINC000859608860    0.0600
     34 H34        -8.2163    2.5946   60.7561 H       1  ZINC000859608860    0.0700
     35 H35        -8.3035    1.5718   62.2103 H       1  ZINC000859608860    0.0700
     36 H36        -9.7737    1.0714   59.6868 H       1  ZINC000859608860    0.4000
     37 H37        -9.4737   -1.5809   59.3263 H       1  ZINC000859608860    0.1000
     38 H38        -9.9839   -2.4118   60.8155 H       1  ZINC000859608860    0.1000
     39 H39       -10.6016    0.1256   57.2791 H       1  ZINC000859608860    0.2000
     40 H40        -8.9351    0.9319   56.1556 H       1  ZINC000859608860    0.1400
     41 H41        -7.6665    2.1670   54.4462 H       1  ZINC000859608860    0.1500
     42 H42        -8.3542   -0.9819   51.6501 H       1  ZINC000859608860    0.1500
     43 H43        -9.6199   -2.2255   53.3556 H       1  ZINC000859608860    0.1500
     44 H44       -10.0559   -3.4588   55.0548 H       1  ZINC000859608860    0.2200
@<TRIPOS>BOND
     1     1     2    1
     2     1    25    1
     3     1    26    1
     4     1    27    1
     5     2     3    1
     6     2     4    1
     7     2     5    1
     8     3    28    1
     9     3    29    1
    10     3    30    1
    11     4    31    1
    12     4    32    1
    13     4    33    1
    14     5     6    1
    15     5    34    1
    16     5    35    1
    17     6     7   am
    18     6    36    1
    19     7     8    2
    20     7     9    1
    21     9    10    1
    22     9    37    1
    23     9    38    1
    24    10    11    1
    25    11    12    2
    26    11    13    1
    27    13    24    1
    28    13    14    2
    29    14    15    1
    30    14    39    1
    31    15    16    1
    32    15    23    1
    33    16    22   ar
    34    16    17   ar
    35    17    18   ar
    36    17    40    1
    37    18    19   ar
    38    18    41    1
    39    19    20    1
    40    19    21   ar
    41    21    22   ar
    42    21    42    1
    43    22    43    1
    44    23    24    2
    45    23    44    1
@<TRIPOS>SUBSTRUCTURE
     1 ZINC000859608860        1 TEMP              0 ****  ****    0 ROOT


##########                                Name:    ZINC000894043060
##########                DOCK_Rotatable_Bonds:                  11
##########                         Heavy_Atoms:                  26
##########                    Molecular_Weight:             396.812
##########                DOCK_Rotatable_Bonds:                  11
##########                       Formal_Charge:          -0.0199999
##########                     HBond_Acceptors:                   9
##########                        HBond_Donors:                   2
##########                         Heavy_Atoms:                  26
##########                          Grid_Score:          -28.322309
##########                     Grid_vdw_energy:          -27.295408
##########                      Grid_es_energy:           -1.026901
##########           Internal_energy_repulsive:           14.790848

@<TRIPOS>MOLECULE
ZINC000894043060
 47 47 1 0 0
SMALL
USER_CHARGES


@<TRIPOS>ATOM
      1 C1         -7.0227    2.6337   53.5308 C.3     1  ZINC000894043060   -0.1700
      2 C2         -7.8822    1.9158   52.4881 C.3     1  ZINC000894043060    0.1000
      3 H3         -8.4090    2.6528   51.8819 H       1  ZINC000894043060    0.1100
      4 N4         -8.8552    1.0555   53.1657 N.am    1  ZINC000894043060   -0.7300
      5 C5        -10.0459    1.5569   53.5493 C.2     1  ZINC000894043060    0.5200
      6 O6        -10.3114    2.7207   53.3349 O.2     1  ZINC000894043060   -0.5200
      7 C7        -11.0476    0.6713   54.2448 C.3     1  ZINC000894043060   -0.1400
      8 C8        -10.3976    0.0340   55.4746 C.3     1  ZINC000894043060   -0.0200
      9 C9        -10.0142    1.1279   56.4734 C.3     1  ZINC000894043060   -0.1400
     10 C10        -9.0743    0.5591   57.5050 C.2     1  ZINC000894043060    0.5200
     11 O11        -7.9329    0.2853   57.1999 O.2     1  ZINC000894043060   -0.5200
     12 N12        -9.5023    0.3546   58.7666 N.am    1  ZINC000894043060   -0.7300
     13 C13        -8.5881   -0.1967   59.7698 C.3     1  ZINC000894043060    0.1000
     14 H14        -7.5587    0.0021   59.4716 H       1  ZINC000894043060    0.1200
     15 C15        -8.8622    0.4592   61.1247 C.3     1  ZINC000894043060   -0.1700
     16 C16        -8.8042   -1.7072   59.8814 C.3     1  ZINC000894043060    0.2600
     17 F17       -10.1446   -1.9651   60.1881 F       1  ZINC000894043060   -0.1900
     18 F18        -8.4787   -2.3160   58.6646 F       1  ZINC000894043060   -0.2000
     19 C19       -11.3710   -0.9177   56.1209 C.ar    1  ZINC000894043060   -0.0600
     20 C20       -12.5968   -0.4570   56.5638 C.ar    1  ZINC000894043060   -0.1200
     21 C21       -13.4901   -1.3294   57.1567 C.ar    1  ZINC000894043060   -0.1200
     22 C22       -13.1571   -2.6639   57.3069 C.ar    1  ZINC000894043060   -0.0400
     23 Cl23      -14.2787   -3.7603   58.0509 Cl      1  ZINC000894043060   -0.0800
     24 C24       -11.9301   -3.1242   56.8633 C.ar    1  ZINC000894043060   -0.1100
     25 C25       -11.0400   -2.2521   56.2655 C.ar    1  ZINC000894043060   -0.0400
     26 C26        -6.9859    1.0623   51.5886 C.3     1  ZINC000894043060    0.2600
     27 F27        -6.1593    1.8960   50.8280 F       1  ZINC000894043060   -0.2000
     28 F28        -6.1977    0.2201   52.3801 F       1  ZINC000894043060   -0.1900
     29 H29        -6.4960    1.8968   54.1371 H       1  ZINC000894043060    0.0600
     30 H30        -6.2989    3.2738   53.0265 H       1  ZINC000894043060    0.0800
     31 H31        -7.6613    3.2418   54.1715 H       1  ZINC000894043060    0.0800
     32 H32        -8.6424    0.1250   53.3383 H       1  ZINC000894043060    0.4000
     33 H33       -11.9056    1.2674   54.5553 H       1  ZINC000894043060    0.1000
     34 H34       -11.3769   -0.1113   53.5614 H       1  ZINC000894043060    0.1000
     35 H35        -9.5035   -0.5109   55.1716 H       1  ZINC000894043060    0.1000
     36 H36        -9.5230    1.9456   55.9459 H       1  ZINC000894043060    0.1000
     37 H37       -10.9121    1.5007   56.9662 H       1  ZINC000894043060    0.1000
     38 H38       -10.4156    0.5725   59.0103 H       1  ZINC000894043060    0.4000
     39 H39        -9.8916    0.2604   61.4229 H       1  ZINC000894043060    0.0700
     40 H40        -8.1820    0.0490   61.8712 H       1  ZINC000894043060    0.0800
     41 H41        -8.7083    1.5353   61.0453 H       1  ZINC000894043060    0.0700
     42 H42        -8.1675   -2.1080   60.6701 H       1  ZINC000894043060    0.1200
     43 H43       -12.8565    0.5847   56.4469 H       1  ZINC000894043060    0.1200
     44 H44       -14.4475   -0.9694   57.5031 H       1  ZINC000894043060    0.1300
     45 H45       -11.6695   -4.1658   56.9806 H       1  ZINC000894043060    0.1300
     46 H46       -10.0823   -2.6114   55.9190 H       1  ZINC000894043060    0.1300
     47 H47        -7.6058    0.4607   50.9238 H       1  ZINC000894043060    0.1100
@<TRIPOS>BOND
     1     1     2    1
     2     1    29    1
     3     1    30    1
     4     1    31    1
     5     2     3    1
     6     2     4    1
     7     2    26    1
     8     4     5   am
     9     4    32    1
    10     5     6    2
    11     5     7    1
    12     7     8    1
    13     7    33    1
    14     7    34    1
    15     8     9    1
    16     8    19    1
    17     8    35    1
    18     9    10    1
    19     9    36    1
    20     9    37    1
    21    10    11    2
    22    10    12   am
    23    12    13    1
    24    12    38    1
    25    13    14    1
    26    13    15    1
    27    13    16    1
    28    15    39    1
    29    15    40    1
    30    15    41    1
    31    16    17    1
    32    16    18    1
    33    16    42    1
    34    19    25   ar
    35    19    20   ar
    36    20    21   ar
    37    20    43    1
    38    21    22   ar
    39    21    44    1
    40    22    23    1
    41    22    24   ar
    42    24    25   ar
    43    24    45    1
    44    25    46    1
    45    26    27    1
    46    26    28    1
    47    26    47    1
@<TRIPOS>SUBSTRUCTURE
     1 ZINC000894043060        1 TEMP              0 ****  ****    0 ROOT


##########                                Name:    ZINC001045438664
##########                DOCK_Rotatable_Bonds:                   6
##########                         Heavy_Atoms:                  26
##########                    Molecular_Weight:             352.439
##########                DOCK_Rotatable_Bonds:                   6
##########                       Formal_Charge:          -0.0099999
##########                     HBond_Acceptors:                   7
##########                        HBond_Donors:                   2
##########                         Heavy_Atoms:                  26
##########                          Grid_Score:          -28.312918
##########                     Grid_vdw_energy:          -27.423740
##########                      Grid_es_energy:           -0.889177
##########           Internal_energy_repulsive:           12.061719

@<TRIPOS>MOLECULE
ZINC001045438664
 50 53 1 0 0
SMALL
USER_CHARGES


@<TRIPOS>ATOM
      1 C1         -9.6447   -1.1706   53.1426 C.3     1  ZINC001045438664   -0.1100
      2 C2         -9.5745   -0.9238   54.6276 C.ar    1  ZINC001045438664    0.2100
      3 C3        -10.0125   -1.8847   55.5170 C.ar    1  ZINC001045438664   -0.3000
      4 C4         -9.9273   -1.6108   56.8840 C.ar    1  ZINC001045438664    0.4500
      5 N5        -10.3532   -2.5427   57.8164 N.pl3   1  ZINC001045438664   -0.7100
      6 C6        -11.7562   -2.5693   58.2372 C.3     1  ZINC001045438664    0.1500
      7 H7        -11.9105   -3.3921   58.9353 H       1  ZINC001045438664    0.0900
      8 C8        -12.6524   -2.7646   57.0127 C.3     1  ZINC001045438664   -0.1300
      9 C9        -14.1176   -2.7925   57.4523 C.3     1  ZINC001045438664   -0.1200
     10 C10       -14.4700   -1.4702   58.1365 C.3     1  ZINC001045438664   -0.1200
     11 C11       -13.5737   -1.2749   59.3611 C.3     1  ZINC001045438664   -0.1300
     12 C12       -12.1085   -1.2470   58.9215 C.3     1  ZINC001045438664    0.1400
     13 H13       -11.9543   -0.4243   58.2234 H       1  ZINC001045438664    0.1000
     14 N14       -11.2504   -1.0601   60.0940 N.am    1  ZINC001045438664   -0.7200
     15 C15       -11.2082    0.1357   60.7145 C.2     1  ZINC001045438664    0.5700
     16 O16       -11.8811    1.0594   60.3002 O.2     1  ZINC001045438664   -0.5200
     17 C17       -10.3436    0.3238   61.8987 C.ar    1  ZINC001045438664   -0.2500
     18 C18       -10.7032    1.2125   62.9183 C.ar    1  ZINC001045438664    0.1900
     19 N19        -9.9008    1.3493   63.9593 N.ar    1  ZINC001045438664   -0.5200
     20 C20        -8.7774    0.6641   64.0449 C.ar    1  ZINC001045438664    0.3200
     21 N21        -8.4003   -0.1830   63.1073 N.ar    1  ZINC001045438664   -0.5200
     22 C22        -9.1451   -0.3859   62.0347 C.ar    1  ZINC001045438664    0.2100
     23 N23        -9.4301   -0.4415   57.2759 N.ar    1  ZINC001045438664   -0.5800
     24 C24        -9.0236    0.4468   56.3917 C.ar    1  ZINC001045438664    0.4000
     25 C25        -8.4657    1.7604   56.8760 C.3     1  ZINC001045438664   -0.1100
     26 C26        -9.4649    2.8430   57.2889 C.3     1  ZINC001045438664   -0.1500
     27 C27        -8.6527    2.1049   58.3550 C.3     1  ZINC001045438664   -0.1500
     28 N28        -9.0863    0.2165   55.0958 N.ar    1  ZINC001045438664   -0.5600
     29 H29        -8.7208   -1.6428   52.8086 H       1  ZINC001045438664    0.0800
     30 H30       -10.4876   -1.8257   52.9225 H       1  ZINC001045438664    0.0800
     31 H31        -9.7764   -0.2218   52.6224 H       1  ZINC001045438664    0.0800
     32 H32       -10.4115   -2.8243   55.1647 H       1  ZINC001045438664    0.1400
     33 H33        -9.7223   -3.1775   58.1907 H       1  ZINC001045438664    0.4100
     34 H34       -12.4981   -1.9419   56.3146 H       1  ZINC001045438664    0.0700
     35 H35       -12.4013   -3.7067   56.5252 H       1  ZINC001045438664    0.0700
     36 H36       -14.7561   -2.9315   56.5799 H       1  ZINC001045438664    0.0700
     37 H37       -14.2719   -3.6152   58.1504 H       1  ZINC001045438664    0.0700
     38 H38       -14.3156   -0.6474   57.4385 H       1  ZINC001045438664    0.0700
     39 H39       -15.5138   -1.4899   58.4498 H       1  ZINC001045438664    0.0700
     40 H40       -13.8248   -0.3328   59.8486 H       1  ZINC001045438664    0.0800
     41 H41       -13.7280   -2.0976   60.0592 H       1  ZINC001045438664    0.0700
     42 H42       -10.7126   -1.7968   60.4238 H       1  ZINC001045438664    0.4000
     43 H43       -11.6215    1.7774   62.8552 H       1  ZINC001045438664    0.1700
     44 H44        -8.1460    0.8012   64.9102 H       1  ZINC001045438664    0.2100
     45 H45        -8.8296   -1.0814   61.2711 H       1  ZINC001045438664    0.1800
     46 H46        -7.5418    2.0840   56.3968 H       1  ZINC001045438664    0.1300
     47 H47        -9.1984    3.8793   57.0811 H       1  ZINC001045438664    0.1000
     48 H48       -10.5257    2.6053   57.2102 H       1  ZINC001045438664    0.1100
     49 H49        -9.1793    1.3816   58.9776 H       1  ZINC001045438664    0.1000
     50 H50        -7.8519    2.6556   58.8485 H       1  ZINC001045438664    0.1000
@<TRIPOS>BOND
     1     1     2    1
     2     1    29    1
     3     1    30    1
     4     1    31    1
     5     2    28   ar
     6     2     3   ar
     7     3     4   ar
     8     3    32    1
     9     4     5    1
    10     4    23   ar
    11     5     6    1
    12     5    33    1
    13     6     7    1
    14     6    12    1
    15     6     8    1
    16     8     9    1
    17     8    34    1
    18     8    35    1
    19     9    10    1
    20     9    36    1
    21     9    37    1
    22    10    11    1
    23    10    38    1
    24    10    39    1
    25    11    12    1
    26    11    40    1
    27    11    41    1
    28    12    13    1
    29    12    14    1
    30    14    15   am
    31    14    42    1
    32    15    16    2
    33    15    17    1
    34    17    22   ar
    35    17    18   ar
    36    18    19   ar
    37    18    43    1
    38    19    20   ar
    39    20    21   ar
    40    20    44    1
    41    21    22   ar
    42    22    45    1
    43    23    24   ar
    44    24    25    1
    45    24    28   ar
    46    25    27    1
    47    25    26    1
    48    25    46    1
    49    26    27    1
    50    26    47    1
    51    26    48    1
    52    27    49    1
    53    27    50    1
@<TRIPOS>SUBSTRUCTURE
     1 ZINC001045438664        1 TEMP              0 ****  ****    0 ROOT


##########                                Name:    ZINC000980108339
##########                DOCK_Rotatable_Bonds:                   9
##########                         Heavy_Atoms:                  25
##########                    Molecular_Weight:             348.445
##########                DOCK_Rotatable_Bonds:                   9
##########                       Formal_Charge:          -0.0100001
##########                     HBond_Acceptors:                   7
##########                        HBond_Donors:                   3
##########                         Heavy_Atoms:                  25
##########                          Grid_Score:          -28.308992
##########                     Grid_vdw_energy:          -28.202621
##########                      Grid_es_energy:           -0.106372
##########           Internal_energy_repulsive:           13.831630

@<TRIPOS>MOLECULE
ZINC000980108339
 53 56 1 0 0
SMALL
USER_CHARGES


@<TRIPOS>ATOM
      1 C1        -14.3707   -3.3686   58.5253 C.3     1  ZINC000980108339    0.1200
      2 N2        -12.9531   -3.0637   58.3158 N.am    1  ZINC000980108339   -0.6400
      3 C3        -12.1854   -3.3747   57.1008 C.3     1  ZINC000980108339    0.1100
      4 C4        -10.7717   -2.8459   57.4120 C.3     1  ZINC000980108339    0.1000
      5 H5        -10.0463   -3.6593   57.3936 H       1  ZINC000980108339    0.1200
      6 C6        -10.3821   -1.7694   56.4319 C.2     1  ZINC000980108339    0.5000
      7 O7        -10.7185   -1.8566   55.2700 O.2     1  ZINC000980108339   -0.5200
      8 N8         -9.6600   -0.7097   56.8468 N.am    1  ZINC000980108339   -0.7200
      9 C9         -9.2799    0.3359   55.8938 C.3     1  ZINC000980108339    0.1300
     10 C10        -7.8986    0.8825   56.2604 C.3     1  ZINC000980108339   -0.1200
     11 H11        -7.0877    0.2177   55.9625 H       1  ZINC000980108339    0.1000
     12 C12        -7.6828    2.3452   55.8376 C.3     1  ZINC000980108339   -0.1400
     13 C13        -6.9585    2.5437   57.1796 C.3     1  ZINC000980108339    0.1200
     14 H14        -7.1835    3.4956   57.6606 H       1  ZINC000980108339    0.1100
     15 N15        -5.5219    2.2631   57.1182 N.am    1  ZINC000980108339   -0.7200
     16 C16        -4.6402    3.1480   57.6238 C.2     1  ZINC000980108339    0.5200
     17 O17        -5.0360    4.1762   58.1310 O.2     1  ZINC000980108339   -0.5300
     18 C18        -3.1622    2.8602   57.5591 C.3     1  ZINC000980108339   -0.1100
     19 C19        -2.4983    3.3054   58.8636 C.3     1  ZINC000980108339   -0.1300
     20 H20        -2.5165    2.5758   59.6733 H       1  ZINC000980108339    0.1200
     21 C21        -2.6060    4.7839   59.2424 C.3     1  ZINC000980108339   -0.1700
     22 C22        -1.2710    4.2128   58.7578 C.3     1  ZINC000980108339   -0.1200
     23 H23        -0.9367    4.4929   57.7588 H       1  ZINC000980108339    0.1000
     24 C24        -0.1632    4.0277   59.7967 C.3     1  ZINC000980108339   -0.1300
     25 C25         0.2319    2.5949   60.1603 C.3     1  ZINC000980108339   -0.1800
     26 C26         1.1708    3.4557   59.3127 C.3     1  ZINC000980108339   -0.1800
     27 C27        -7.7943    1.3674   57.7160 C.3     1  ZINC000980108339   -0.1400
     28 N28       -10.8931   -2.2931   58.7692 N.am    1  ZINC000980108339   -0.7200
     29 C29       -12.1521   -2.4523   59.1982 C.2     1  ZINC000980108339    0.7000
     30 O30       -12.5310   -2.0833   60.2930 O.2     1  ZINC000980108339   -0.5800
     31 H31       -14.6750   -3.0210   59.5126 H       1  ZINC000980108339    0.0900
     32 H32       -14.9669   -2.8661   57.7636 H       1  ZINC000980108339    0.0600
     33 H33       -14.5250   -4.4454   58.4557 H       1  ZINC000980108339    0.0600
     34 H34       -12.1619   -4.4507   56.9280 H       1  ZINC000980108339    0.1000
     35 H35       -12.6064   -2.8569   56.2391 H       1  ZINC000980108339    0.0900
     36 H36        -9.3921   -0.6393   57.7764 H       1  ZINC000980108339    0.4000
     37 H37        -9.2496   -0.0828   54.8879 H       1  ZINC000980108339    0.0700
     38 H38       -10.0112    1.1434   55.9294 H       1  ZINC000980108339    0.0700
     39 H39        -7.0329    2.4576   54.9698 H       1  ZINC000980108339    0.0800
     40 H40        -8.6075    2.9159   55.7520 H       1  ZINC000980108339    0.1000
     41 H41        -5.2054    1.4402   56.7136 H       1  ZINC000980108339    0.4000
     42 H42        -3.0063    1.7906   57.4185 H       1  ZINC000980108339    0.1000
     43 H43        -2.7224    3.4044   56.7233 H       1  ZINC000980108339    0.1000
     44 H44        -3.1499    5.4393   58.5621 H       1  ZINC000980108339    0.0900
     45 H45        -2.6947    5.0270   60.3012 H       1  ZINC000980108339    0.1000
     46 H46        -0.1324    4.7752   60.5894 H       1  ZINC000980108339    0.1000
     47 H47         0.5227    2.3996   61.1926 H       1  ZINC000980108339    0.0900
     48 H48        -0.2973    1.7844   59.6594 H       1  ZINC000980108339    0.0900
     49 H49         1.2592    3.2115   58.2541 H       1  ZINC000980108339    0.0900
     50 H50         2.0792    3.8268   59.7872 H       1  ZINC000980108339    0.0900
     51 H51        -8.7499    1.6702   58.1441 H       1  ZINC000980108339    0.1000
     52 H52        -7.2339    0.6930   58.3634 H       1  ZINC000980108339    0.0800
     53 H53       -10.1765   -1.8758   59.2723 H       1  ZINC000980108339    0.4400
@<TRIPOS>BOND
     1     1     2    1
     2     1    31    1
     3     1    32    1
     4     1    33    1
     5     2    29   am
     6     2     3    1
     7     3     4    1
     8     3    34    1
     9     3    35    1
    10     4     5    1
    11     4     6    1
    12     4    28    1
    13     6     7    2
    14     6     8   am
    15     8     9    1
    16     8    36    1
    17     9    10    1
    18     9    37    1
    19     9    38    1
    20    10    11    1
    21    10    27    1
    22    10    12    1
    23    12    13    1
    24    12    39    1
    25    12    40    1
    26    13    14    1
    27    13    15    1
    28    13    27    1
    29    15    16   am
    30    15    41    1
    31    16    17    2
    32    16    18    1
    33    18    19    1
    34    18    42    1
    35    18    43    1
    36    19    20    1
    37    19    22    1
    38    19    21    1
    39    21    22    1
    40    21    44    1
    41    21    45    1
    42    22    23    1
    43    22    24    1
    44    24    26    1
    45    24    25    1
    46    24    46    1
    47    25    26    1
    48    25    47    1
    49    25    48    1
    50    26    49    1
    51    26    50    1
    52    27    51    1
    53    27    52    1
    54    28    29   am
    55    28    53    1
    56    29    30    2
@<TRIPOS>SUBSTRUCTURE
     1 ZINC000980108339        1 TEMP              0 ****  ****    0 ROOT


##########                                Name:    ZINC000269356812
##########                DOCK_Rotatable_Bonds:                  10
##########                         Heavy_Atoms:                  25
##########                    Molecular_Weight:             387.431
##########                DOCK_Rotatable_Bonds:                  10
##########                       Formal_Charge:          0.00999978
##########                     HBond_Acceptors:                  10
##########                        HBond_Donors:                   3
##########                         Heavy_Atoms:                  25
##########                          Grid_Score:          -28.299892
##########                     Grid_vdw_energy:          -26.770569
##########                      Grid_es_energy:           -1.529323
##########           Internal_energy_repulsive:           10.182364

@<TRIPOS>MOLECULE
ZINC000269356812
 40 41 1 0 0
SMALL
USER_CHARGES


@<TRIPOS>ATOM
      1 C1        -16.2843   -1.8165   57.2161 C.3     1  ZINC000269356812   -0.1400
      2 C2        -15.4560   -2.5357   58.2828 C.3     1  ZINC000269356812    0.2000
      3 O3        -16.2608   -3.5290   58.9212 O.3     1  ZINC000269356812   -0.5400
      4 C4        -14.2472   -3.2042   57.6249 C.3     1  ZINC000269356812    0.0900
      5 N5        -13.4168   -2.1848   56.9789 N.am    1  ZINC000269356812   -0.6900
      6 C6        -12.2292   -2.5252   56.4403 C.2     1  ZINC000269356812    0.5100
      7 O7        -11.8470   -3.6759   56.4918 O.2     1  ZINC000269356812   -0.5100
      8 C8        -11.3836   -1.4864   55.7802 C.2     1  ZINC000269356812    0.5100
      9 O9        -11.9063   -0.5553   55.2027 O.2     1  ZINC000269356812   -0.4900
     10 N10       -10.0400   -1.5826   55.8255 N.am    1  ZINC000269356812   -0.6400
     11 C11        -9.2476   -0.6093   55.2070 C.ar    1  ZINC000269356812    0.0900
     12 C12        -9.1779   -0.5352   53.8161 C.ar    1  ZINC000269356812   -0.0600
     13 C13        -8.3830    0.4425   53.2477 C.ar    1  ZINC000269356812   -0.1200
     14 C14        -7.6834    1.3145   54.0764 C.ar    1  ZINC000269356812    0.1000
     15 S15        -6.6671    2.5657   53.3647 S.3     1  ZINC000269356812   -0.0600
     16 C16        -6.0595    1.7827   51.8455 C.3     1  ZINC000269356812    0.2900
     17 F17        -5.0194    2.5496   51.3095 F       1  ZINC000269356812   -0.1700
     18 F18        -5.5885    0.4984   52.1389 F       1  ZINC000269356812   -0.1700
     19 N19        -7.7733    1.2149   55.3941 N.ar    1  ZINC000269356812   -0.4600
     20 C20        -8.5263    0.2977   55.9700 C.ar    1  ZINC000269356812    0.1100
     21 C21       -14.9821   -1.5380   59.3079 C.2     1  ZINC000269356812   -0.2300
     22 C22       -14.9279   -0.2174   59.1280 C.2     1  ZINC000269356812   -0.1100
     23 C23       -14.4575    0.5005   60.2141 C.2     1  ZINC000269356812   -0.1400
     24 C24       -14.1298   -0.2372   61.2761 C.2     1  ZINC000269356812   -0.2000
     25 S25       -14.4233   -1.9360   60.9274 S.3     1  ZINC000269356812    0.1100
     26 H26       -17.1455   -1.3402   57.6848 H       1  ZINC000269356812    0.0800
     27 H27       -15.6704   -1.0588   56.7291 H       1  ZINC000269356812    0.0800
     28 H28       -16.6271   -2.5381   56.4746 H       1  ZINC000269356812    0.0700
     29 H29       -16.7065   -4.1285   58.3072 H       1  ZINC000269356812    0.3800
     30 H30       -13.6612   -3.7229   58.3837 H       1  ZINC000269356812    0.0900
     31 H31       -14.5899   -3.9205   56.8782 H       1  ZINC000269356812    0.0900
     32 H32       -13.7218   -1.2648   56.9388 H       1  ZINC000269356812    0.4200
     33 H33        -9.6223   -2.3267   56.2869 H       1  ZINC000269356812    0.4300
     34 H34        -9.7318   -1.2258   53.1974 H       1  ZINC000269356812    0.1600
     35 H35        -8.3056    0.5283   52.1739 H       1  ZINC000269356812    0.1500
     36 H36        -6.8716    1.7153   51.1216 H       1  ZINC000269356812    0.1500
     37 H37        -8.5749    0.2466   57.0477 H       1  ZINC000269356812    0.1700
     38 H38       -15.2277    0.2559   58.2047 H       1  ZINC000269356812    0.1500
     39 H39       -14.3627    1.5763   60.2023 H       1  ZINC000269356812    0.1400
     40 H40       -13.7465    0.1499   62.2086 H       1  ZINC000269356812    0.1700
@<TRIPOS>BOND
     1     1     2    1
     2     1    26    1
     3     1    27    1
     4     1    28    1
     5     2     3    1
     6     2     4    1
     7     2    21    1
     8     3    29    1
     9     4     5    1
    10     4    30    1
    11     4    31    1
    12     5     6   am
    13     5    32    1
    14     6     7    2
    15     6     8    1
    16     8     9    2
    17     8    10   am
    18    10    11    1
    19    10    33    1
    20    11    20   ar
    21    11    12   ar
    22    12    13   ar
    23    12    34    1
    24    13    14   ar
    25    13    35    1
    26    14    15    1
    27    14    19   ar
    28    15    16    1
    29    16    17    1
    30    16    18    1
    31    16    36    1
    32    19    20   ar
    33    20    37    1
    34    21    25    1
    35    21    22    2
    36    22    23    1
    37    22    38    1
    38    23    24    2
    39    23    39    1
    40    24    25    1
    41    24    40    1
@<TRIPOS>SUBSTRUCTURE
     1 ZINC000269356812        1 TEMP              0 ****  ****    0 ROOT


##########                                Name:    ZINC000826052721
##########                DOCK_Rotatable_Bonds:                   3
##########                         Heavy_Atoms:                  29
##########                    Molecular_Weight:             393.399
##########                DOCK_Rotatable_Bonds:                   3
##########                       Formal_Charge:        -4.47035e-07
##########                     HBond_Acceptors:                   9
##########                        HBond_Donors:                   2
##########                         Heavy_Atoms:                  29
##########                          Grid_Score:          -28.267963
##########                     Grid_vdw_energy:          -25.165302
##########                      Grid_es_energy:           -3.102661
##########           Internal_energy_repulsive:           32.595184

@<TRIPOS>MOLECULE
ZINC000826052721
 46 50 1 0 0
SMALL
USER_CHARGES


@<TRIPOS>ATOM
      1 C1         -9.1358    2.4763   63.0466 C.3     1  ZINC000826052721   -0.0400
      2 N2         -9.8845    2.0212   61.8674 N.4     1  ZINC000826052721   -0.3800
      3 H3        -10.0647    2.8052   61.2585 H       1  ZINC000826052721    0.4300
      4 C4        -11.1555    1.4278   62.2924 C.3     1  ZINC000826052721    0.0500
      5 C5        -11.8754    0.8203   61.1175 C.ar    1  ZINC000826052721   -0.1300
      6 C6        -13.2336    0.5659   61.2315 C.ar    1  ZINC000826052721   -0.1000
      7 C7        -13.9290    0.0042   60.1792 C.ar    1  ZINC000826052721   -0.1000
      8 C8        -13.2690   -0.3069   59.0053 C.ar    1  ZINC000826052721   -0.0800
      9 C9        -11.9165   -0.0528   58.8894 C.ar    1  ZINC000826052721   -0.0800
     10 C10       -11.2183    0.5120   59.9447 C.ar    1  ZINC000826052721   -0.1200
     11 C11        -9.7438    0.7768   59.7772 C.3     1  ZINC000826052721    0.1100
     12 H12        -9.6028    1.6624   59.1576 H       1  ZINC000826052721    0.1100
     13 N13        -9.1106   -0.3791   59.1285 N.3     1  ZINC000826052721   -0.6200
     14 C14        -8.8268   -0.1091   57.8027 C.ar    1  ZINC000826052721    0.1600
     15 C15        -9.3730   -0.8847   56.7742 C.ar    1  ZINC000826052721   -0.0400
     16 C16       -10.2702   -2.0154   57.0888 C.2     1  ZINC000826052721    0.0700
     17 N17       -11.4994   -2.2178   56.6083 N.2     1  ZINC000826052721   -0.3800
     18 N18       -11.9408   -3.3140   57.1240 N.2     1  ZINC000826052721   -0.1600
     19 N19       -11.0486   -3.8027   57.9122 N.2     1  ZINC000826052721   -0.1700
     20 N20       -10.0141   -3.0333   57.9141 N.pl3   1  ZINC000826052721   -0.3400
     21 C21        -9.0642   -0.5754   55.4418 C.ar    1  ZINC000826052721    0.1800
     22 N22        -8.2682    0.4174   55.1335 N.ar    1  ZINC000826052721   -0.4700
     23 C23        -7.7090    1.1946   56.0706 C.ar    1  ZINC000826052721    0.0900
     24 C24        -6.8557    2.2538   55.7114 C.ar    1  ZINC000826052721    0.1700
     25 F25        -6.5918    2.4996   54.4095 F       1  ZINC000826052721   -0.1100
     26 C26        -6.2967    3.0324   56.6815 C.ar    1  ZINC000826052721   -0.1900
     27 C27        -6.5562    2.7952   58.0301 C.ar    1  ZINC000826052721    0.1300
     28 F28        -5.9872    3.5833   58.9684 F       1  ZINC000826052721   -0.1300
     29 C29        -7.3786    1.7755   58.4139 C.ar    1  ZINC000826052721   -0.1500
     30 C30        -7.9697    0.9570   57.4412 C.ar    1  ZINC000826052721   -0.0600
     31 C31        -9.1017    1.0065   61.1460 C.3     1  ZINC000826052721    0.0000
     32 H32        -8.9387    1.6277   63.7017 H       1  ZINC000826052721    0.1200
     33 H33        -8.1909    2.9174   62.7290 H       1  ZINC000826052721    0.1300
     34 H34        -9.7222    3.2217   63.5838 H       1  ZINC000826052721    0.1200
     35 H35       -11.7821    2.2008   62.7374 H       1  ZINC000826052721    0.1400
     36 H36       -10.9604    0.6532   63.0341 H       1  ZINC000826052721    0.1400
     37 H37       -13.7505    0.8088   62.1482 H       1  ZINC000826052721    0.1300
     38 H38       -14.9869   -0.1917   60.2731 H       1  ZINC000826052721    0.1300
     39 H39       -13.8098   -0.7471   58.1806 H       1  ZINC000826052721    0.1300
     40 H40       -11.4008   -0.2950   57.9719 H       1  ZINC000826052721    0.1400
     41 H41        -9.6872   -1.2027   59.2144 H       1  ZINC000826052721    0.4100
     42 H42        -9.4905   -1.1737   54.6501 H       1  ZINC000826052721    0.1800
     43 H43        -5.6426    3.8446   56.4006 H       1  ZINC000826052721    0.1600
     44 H44        -7.5726    1.5999   59.4617 H       1  ZINC000826052721    0.1400
     45 H45        -9.1007    0.0742   61.7108 H       1  ZINC000826052721    0.1400
     46 H46        -8.0787    1.3595   61.0157 H       1  ZINC000826052721    0.1400
@<TRIPOS>BOND
     1     1     2    1
     2     1    32    1
     3     1    33    1
     4     1    34    1
     5     2     3    1
     6     2    31    1
     7     2     4    1
     8     4     5    1
     9     4    35    1
    10     4    36    1
    11     5    10   ar
    12     5     6   ar
    13     6     7   ar
    14     6    37    1
    15     7     8   ar
    16     7    38    1
    17     8     9   ar
    18     8    39    1
    19     9    10   ar
    20     9    40    1
    21    10    11    1
    22    11    12    1
    23    11    13    1
    24    11    31    1
    25    13    14    1
    26    13    41    1
    27    14    30   ar
    28    14    15   ar
    29    15    16    1
    30    15    21   ar
    31    16    20    1
    32    16    17    2
    33    17    18    1
    34    18    19    2
    35    19    20    1
    36    21    22   ar
    37    21    42    1
    38    22    23   ar
    39    23    30   ar
    40    23    24   ar
    41    24    25    1
    42    24    26   ar
    43    26    27   ar
    44    26    43    1
    45    27    28    1
    46    27    29   ar
    47    29    30   ar
    48    29    44    1
    49    31    45    1
    50    31    46    1
@<TRIPOS>SUBSTRUCTURE
     1 ZINC000826052721        1 TEMP              0 ****  ****    0 ROOT


##########                                Name:    ZINC001002468398
##########                DOCK_Rotatable_Bonds:                   7
##########                         Heavy_Atoms:                  24
##########                    Molecular_Weight:             341.358
##########                DOCK_Rotatable_Bonds:                   7
##########                       Formal_Charge:           0.0100001
##########                     HBond_Acceptors:                   8
##########                        HBond_Donors:                   0
##########                         Heavy_Atoms:                  24
##########                          Grid_Score:          -28.259344
##########                     Grid_vdw_energy:          -28.516399
##########                      Grid_es_energy:            0.257056
##########           Internal_energy_repulsive:           26.039711

@<TRIPOS>MOLECULE
ZINC001002468398
 45 47 1 0 0
SMALL
USER_CHARGES


@<TRIPOS>ATOM
      1 C1        -14.4390   -2.7195   60.5092 C.3     1  ZINC001002468398   -0.1400
      2 C2        -15.1071   -2.6681   59.1337 C.3     1  ZINC001002468398   -0.0500
      3 C3        -14.2641   -3.4217   58.1374 C.2     1  ZINC001002468398    0.0500
      4 C4        -13.1224   -2.9790   57.5435 C.2     1  ZINC001002468398   -0.0800
      5 C5        -12.4763   -1.6708   57.7536 C.2     1  ZINC001002468398    0.6000
      6 O6        -13.1564   -0.6733   57.9002 O.2     1  ZINC001002468398   -0.5300
      7 N7        -11.1319   -1.5801   57.7833 N.am    1  ZINC001002468398   -0.6000
      8 C8        -10.3127   -2.7817   57.6067 C.3     1  ZINC001002468398    0.0900
      9 C9        -10.4899   -0.2800   57.9921 C.3     1  ZINC001002468398    0.1000
     10 C10        -9.5708   -0.3554   59.2129 C.3     1  ZINC001002468398    0.1300
     11 H11        -8.7565   -1.0541   59.0212 H       1  ZINC001002468398    0.0800
     12 C12       -10.3751   -0.8128   60.4480 C.3     1  ZINC001002468398   -0.1300
     13 C13        -9.7725    0.0446   61.5922 C.3     1  ZINC001002468398   -0.1300
     14 C14        -9.4784    1.3777   60.8602 C.3     1  ZINC001002468398    0.1000
     15 N15        -9.0261    0.9772   59.5118 N.am    1  ZINC001002468398   -0.6100
     16 C16        -8.2468    1.7124   58.6941 C.2     1  ZINC001002468398    0.5600
     17 O17        -7.8562    2.8044   59.0488 O.2     1  ZINC001002468398   -0.5100
     18 C18        -7.8607    1.1774   57.3392 C.3     1  ZINC001002468398   -0.2000
     19 H19        -7.9023    0.0935   57.2324 H       1  ZINC001002468398    0.1500
     20 C20        -6.7661    1.9214   56.5716 C.3     1  ZINC001002468398   -0.1500
     21 C21        -8.2241    2.0222   56.1164 C.3     1  ZINC001002468398    0.2300
     22 F22        -8.5839    1.3443   54.9467 F       1  ZINC001002468398   -0.1500
     23 F23        -8.8890    3.2323   56.3416 F       1  ZINC001002468398   -0.1400
     24 N24       -12.6892   -3.9716   56.7197 N.2     1  ZINC001002468398   -0.4600
     25 C25       -13.5191   -4.9678   56.8034 C.2     1  ZINC001002468398    0.1700
     26 O26       -14.4933   -4.6596   57.6712 O.3     1  ZINC001002468398   -0.2000
     27 H27       -14.3417   -3.7576   60.8273 H       1  ZINC001002468398    0.0600
     28 H28       -13.4509   -2.2632   60.4505 H       1  ZINC001002468398    0.0600
     29 H29       -15.0488   -2.1745   61.2299 H       1  ZINC001002468398    0.0700
     30 H30       -16.0952   -3.1243   59.1924 H       1  ZINC001002468398    0.1200
     31 H31       -15.2045   -1.6301   58.8157 H       1  ZINC001002468398    0.0900
     32 H32       -10.4825   -3.1943   56.6122 H       1  ZINC001002468398    0.0700
     33 H33        -9.2596   -2.5230   57.7178 H       1  ZINC001002468398    0.0700
     34 H34       -10.5863   -3.5218   58.3587 H       1  ZINC001002468398    0.0700
     35 H35        -9.9033   -0.0188   57.1113 H       1  ZINC001002468398    0.0900
     36 H36       -11.2535    0.4798   58.1586 H       1  ZINC001002468398    0.0900
     37 H37       -11.4354   -0.5948   60.3202 H       1  ZINC001002468398    0.1000
     38 H38       -10.2188   -1.8746   60.6384 H       1  ZINC001002468398    0.0800
     39 H39       -10.4965    0.1906   62.3938 H       1  ZINC001002468398    0.0900
     40 H40        -8.8545   -0.4025   61.9736 H       1  ZINC001002468398    0.0800
     41 H41       -10.3832    1.9820   60.7942 H       1  ZINC001002468398    0.0800
     42 H42        -8.6906    1.9276   61.3752 H       1  ZINC001002468398    0.0800
     43 H43        -6.3252    2.7978   57.0467 H       1  ZINC001002468398    0.1300
     44 H44        -6.0878    1.3270   55.9595 H       1  ZINC001002468398    0.1400
     45 H45       -13.4350   -5.8989   56.2626 H       1  ZINC001002468398    0.2600
@<TRIPOS>BOND
     1     1     2    1
     2     1    27    1
     3     1    28    1
     4     1    29    1
     5     2     3    1
     6     2    30    1
     7     2    31    1
     8     3    26    1
     9     3     4    2
    10     4     5    1
    11     4    24    1
    12     5     6    2
    13     5     7   am
    14     7     8    1
    15     7     9    1
    16     8    32    1
    17     8    33    1
    18     8    34    1
    19     9    10    1
    20     9    35    1
    21     9    36    1
    22    10    11    1
    23    10    15    1
    24    10    12    1
    25    12    13    1
    26    12    37    1
    27    12    38    1
    28    13    14    1
    29    13    39    1
    30    13    40    1
    31    14    15    1
    32    14    41    1
    33    14    42    1
    34    15    16   am
    35    16    17    2
    36    16    18    1
    37    18    19    1
    38    18    21    1
    39    18    20    1
    40    20    21    1
    41    20    43    1
    42    20    44    1
    43    21    22    1
    44    21    23    1
    45    24    25    2
    46    25    26    1
    47    25    45    1
@<TRIPOS>SUBSTRUCTURE
     1 ZINC001002468398        1 TEMP              0 ****  ****    0 ROOT


##########                                Name:    ZINC000266467123
##########                DOCK_Rotatable_Bonds:                   9
##########                         Heavy_Atoms:                  25
##########                    Molecular_Weight:             337.421
##########                DOCK_Rotatable_Bonds:                   9
##########                       Formal_Charge:                0.02
##########                     HBond_Acceptors:                   5
##########                        HBond_Donors:                   3
##########                         Heavy_Atoms:                  25
##########                          Grid_Score:          -28.252821
##########                     Grid_vdw_energy:          -27.138729
##########                      Grid_es_energy:           -1.114092
##########           Internal_energy_repulsive:           11.508843

@<TRIPOS>MOLECULE
ZINC000266467123
 48 50 1 0 0
SMALL
USER_CHARGES


@<TRIPOS>ATOM
      1 C1        -10.2303   -0.2931   53.2983 C.3     1  <0>        -0.1600
      2 C2        -10.0402   -0.6818   54.7658 C.3     1  <0>         0.1500
      3 H3         -9.4081   -1.5676   54.8280 H       1  <0>         0.1200
      4 N4        -11.3446   -0.9695   55.3676 N.am    1  <0>        -0.7300
      5 C5        -11.4354   -1.8323   56.3990 C.2     1  <0>         0.7100
      6 O6        -10.4346   -2.3710   56.8308 O.2     1  <0>        -0.5900
      7 N7        -12.6356   -2.0981   56.9515 N.am    1  <0>        -0.7100
      8 C8        -12.7341   -3.0347   58.0737 C.3     1  <0>         0.1100
      9 H9        -12.2267   -3.9894   57.9352 H       1  <0>         0.1400
     10 C10       -14.0339   -3.0362   58.8807 C.3     1  <0>        -0.1900
     11 C11       -12.7577   -2.4457   59.4855 C.3     1  <0>        -0.1500
     12 H12       -12.2662   -3.0129   60.2759 H       1  <0>         0.1200
     13 C13       -12.6774   -0.9235   59.6180 C.3     1  <0>        -0.0500
     14 C14       -11.4386   -0.5512   60.3913 C.ar    1  <0>        -0.0800
     15 C15       -11.4788    0.4876   61.3024 C.ar    1  <0>        -0.1100
     16 C16       -10.3425    0.8290   62.0117 C.ar    1  <0>        -0.1200
     17 C17        -9.1663    0.1316   61.8103 C.ar    1  <0>        -0.1200
     18 C18        -9.1263   -0.9079   60.8998 C.ar    1  <0>        -0.1200
     19 C19       -10.2638   -1.2523   60.1936 C.ar    1  <0>        -0.1200
     20 C20        -9.3853    0.4558   55.5060 C.2     1  <0>         0.5100
     21 O21       -10.0203    1.4561   55.7650 O.2     1  <0>        -0.5100
     22 N22        -8.0940    0.3616   55.8801 N.am    1  <0>        -0.6700
     23 C23        -7.4859    1.4179   56.5674 C.ar    1  <0>         0.1400
     24 C24        -7.8827    1.7256   57.8623 C.ar    1  <0>        -0.1400
     25 C25        -7.2805    2.7689   58.5379 C.ar    1  <0>        -0.1000
     26 C26        -6.2839    3.5070   57.9264 C.ar    1  <0>        -0.1300
     27 C27        -5.8869    3.2035   56.6370 C.ar    1  <0>        -0.1000
     28 C28        -6.4804    2.1572   55.9583 C.ar    1  <0>        -0.1200
     29 H29        -9.2600   -0.0791   52.8504 H       1  <0>         0.0700
     30 H30       -10.7041   -1.1159   52.7628 H       1  <0>         0.0800
     31 H31       -10.8625    0.5927   53.2360 H       1  <0>         0.0700
     32 H32       -12.1429   -0.5388   55.0238 H       1  <0>         0.4100
     33 H33       -13.4341   -1.6693   56.6061 H       1  <0>         0.4000
     34 H34       -14.8158   -2.3402   58.5767 H       1  <0>         0.1000
     35 H35       -14.3814   -3.9917   59.2734 H       1  <0>         0.1000
     36 H36       -12.6351   -0.4743   58.6258 H       1  <0>         0.0800
     37 H37       -13.5584   -0.5577   60.1452 H       1  <0>         0.0700
     38 H38       -12.3978    1.0326   61.4597 H       1  <0>         0.1200
     39 H39       -10.3738    1.6412   62.7230 H       1  <0>         0.1200
     40 H40        -8.2783    0.3988   62.3639 H       1  <0>         0.1200
     41 H41        -8.2072   -1.4527   60.7422 H       1  <0>         0.1200
     42 H42       -10.2326   -2.0643   59.4823 H       1  <0>         0.1200
     43 H43        -7.5862   -0.4384   55.6730 H       1  <0>         0.4100
     44 H44        -8.6615    1.1499   58.3401 H       1  <0>         0.1300
     45 H45        -7.5887    3.0086   59.5449 H       1  <0>         0.1300
     46 H46        -5.8148    4.3226   58.4567 H       1  <0>         0.1200
     47 H47        -5.1088    3.7823   56.1618 H       1  <0>         0.1300
     48 H48        -6.1700    1.9206   54.9513 H       1  <0>         0.1400
@<TRIPOS>BOND
     1     1     2    1
     2     1    29    1
     3     1    30    1
     4     1    31    1
     5     2     3    1
     6     2     4    1
     7     2    20    1
     8     4     5   am
     9     4    32    1
    10     5     6    2
    11     5     7   am
    12     7     8    1
    13     7    33    1
    14     8     9    1
    15     8    11    1
    16     8    10    1
    17    10    11    1
    18    10    34    1
    19    10    35    1
    20    11    12    1
    21    11    13    1
    22    13    14    1
    23    13    36    1
    24    13    37    1
    25    14    19   ar
    26    14    15   ar
    27    15    16   ar
    28    15    38    1
    29    16    17   ar
    30    16    39    1
    31    17    18   ar
    32    17    40    1
    33    18    19   ar
    34    18    41    1
    35    19    42    1
    36    20    21    2
    37    20    22   am
    38    22    23    1
    39    22    43    1
    40    23    28   ar
    41    23    24   ar
    42    24    25   ar
    43    24    44    1
    44    25    26   ar
    45    25    45    1
    46    26    27   ar
    47    26    46    1
    48    27    28   ar
    49    27    47    1
    50    28    48    1
@<TRIPOS>SUBSTRUCTURE
     1 <0>         1 TEMP              0 ****  ****    0 ROOT


##########                                Name:    ZINC000443394081
##########                DOCK_Rotatable_Bonds:                   8
##########                         Heavy_Atoms:                  27
##########                    Molecular_Weight:             389.878
##########                DOCK_Rotatable_Bonds:                   8
##########                       Formal_Charge:          -0.0300003
##########                     HBond_Acceptors:                   6
##########                        HBond_Donors:                   1
##########                         Heavy_Atoms:                  27
##########                          Grid_Score:          -28.248285
##########                     Grid_vdw_energy:          -28.945917
##########                      Grid_es_energy:            0.697632
##########           Internal_energy_repulsive:           38.638226

@<TRIPOS>MOLECULE
ZINC000443394081
 51 53 1 0 0
SMALL
USER_CHARGES


@<TRIPOS>ATOM
      1 C1        -11.1017   -2.4891   59.8615 C.3     1  ZINC000443394081    0.0200
      2 O2         -9.8000   -2.0416   60.2457 O.3     1  ZINC000443394081   -0.3000
      3 C3         -9.2858   -0.9818   59.5661 C.ar    1  ZINC000443394081    0.1000
      4 C4         -9.4222   -0.9097   58.1937 C.ar    1  ZINC000443394081   -0.1200
      5 C5         -8.8930    0.1812   57.4983 C.ar    1  ZINC000443394081   -0.1300
      6 C6         -9.0363    0.2635   56.0316 C.2     1  ZINC000443394081    0.5700
      7 O7         -8.0617    0.1302   55.3170 O.2     1  ZINC000443394081   -0.4900
      8 N8        -10.2476    0.4863   55.4843 N.am    1  ZINC000443394081   -0.6100
      9 C9        -11.5071    0.6656   56.2292 C.3     1  ZINC000443394081    0.0900
     10 C10       -12.4196    1.4770   55.2759 C.3     1  ZINC000443394081   -0.1300
     11 C11       -12.0410    0.8766   53.8963 C.3     1  ZINC000443394081   -0.1000
     12 H12       -12.5912   -0.0464   53.7133 H       1  ZINC000443394081    0.0900
     13 C13       -12.2969    1.8880   52.7772 C.3     1  ZINC000443394081   -0.1500
     14 C14       -10.5307    0.5974   54.0459 C.3     1  ZINC000443394081    0.1400
     15 H15       -10.2759   -0.3392   53.5497 H       1  ZINC000443394081    0.0800
     16 C16        -9.7261    1.7459   53.4340 C.3     1  ZINC000443394081    0.0600
     17 O17        -8.3813    1.3183   53.2090 O.3     1  ZINC000443394081   -0.5400
     18 C18        -8.2286    1.1935   58.1945 C.ar    1  ZINC000443394081   -0.1000
     19 C19        -8.0955    1.1152   59.5641 C.ar    1  ZINC000443394081   -0.1800
     20 C20        -8.6259    0.0349   60.2555 C.ar    1  ZINC000443394081    0.1300
     21 O21        -8.4922   -0.0377   61.6049 O.3     1  ZINC000443394081   -0.3000
     22 C22        -9.5708    0.4716   62.3919 C.3     1  ZINC000443394081    0.1000
     23 C23        -9.1721    0.4794   63.8452 C.ar    1  ZINC000443394081   -0.0800
     24 C24        -8.1533   -0.3434   64.2868 C.ar    1  ZINC000443394081   -0.0800
     25 C25        -7.7876   -0.3364   65.6202 C.ar    1  ZINC000443394081   -0.1100
     26 C26        -8.4407    0.4930   66.5123 C.ar    1  ZINC000443394081   -0.1000
     27 C27        -9.4600    1.3164   66.0717 C.ar    1  ZINC000443394081   -0.1100
     28 C28        -9.8223    1.3145   64.7367 C.ar    1  ZINC000443394081   -0.0300
     29 Cl29      -11.1021    2.3482   64.1827 Cl      1  ZINC000443394081   -0.0700
     30 H30       -11.3917   -3.3377   60.4811 H       1  ZINC000443394081    0.1000
     31 H31       -11.8186   -1.6792   59.9960 H       1  ZINC000443394081    0.0600
     32 H32       -11.0874   -2.7917   58.8144 H       1  ZINC000443394081    0.0600
     33 H33        -9.9363   -1.6945   57.6589 H       1  ZINC000443394081    0.1500
     34 H34       -11.9567   -0.3019   56.4526 H       1  ZINC000443394081    0.0700
     35 H35       -11.3280    1.2229   57.1487 H       1  ZINC000443394081    0.0800
     36 H36       -13.4719    1.3045   55.5016 H       1  ZINC000443394081    0.0900
     37 H37       -12.1817    2.5398   55.3180 H       1  ZINC000443394081    0.0800
     38 H38       -11.7152    2.7907   52.9633 H       1  ZINC000443394081    0.0600
     39 H39       -12.0003    1.4553   51.8216 H       1  ZINC000443394081    0.0600
     40 H40       -13.3573    2.1384   52.7491 H       1  ZINC000443394081    0.0600
     41 H41       -10.1770    2.0409   52.4865 H       1  ZINC000443394081    0.0600
     42 H42        -9.7279    2.5951   54.1172 H       1  ZINC000443394081    0.0400
     43 H43        -7.8079    2.0028   52.8376 H       1  ZINC000443394081    0.3700
     44 H44        -7.8188    2.0374   57.6595 H       1  ZINC000443394081    0.1400
     45 H45        -7.5812    1.8984   60.1011 H       1  ZINC000443394081    0.1400
     46 H46        -9.8044    1.4877   62.0739 H       1  ZINC000443394081    0.0800
     47 H47       -10.4480   -0.1615   62.2592 H       1  ZINC000443394081    0.0800
     48 H48        -7.6431   -0.9922   63.5903 H       1  ZINC000443394081    0.1400
     49 H49        -6.9913   -0.9796   65.9648 H       1  ZINC000443394081    0.1300
     50 H50        -8.1551    0.4975   67.5538 H       1  ZINC000443394081    0.1300
     51 H51        -9.9703    1.9645   66.7689 H       1  ZINC000443394081    0.1400
@<TRIPOS>BOND
     1     1     2    1
     2     1    30    1
     3     1    31    1
     4     1    32    1
     5     2     3    1
     6     3    20   ar
     7     3     4   ar
     8     4     5   ar
     9     4    33    1
    10     5     6    1
    11     5    18   ar
    12     6     7    2
    13     6     8   am
    14     8    14    1
    15     8     9    1
    16     9    10    1
    17     9    34    1
    18     9    35    1
    19    10    11    1
    20    10    36    1
    21    10    37    1
    22    11    12    1
    23    11    13    1
    24    11    14    1
    25    13    38    1
    26    13    39    1
    27    13    40    1
    28    14    15    1
    29    14    16    1
    30    16    17    1
    31    16    41    1
    32    16    42    1
    33    17    43    1
    34    18    19   ar
    35    18    44    1
    36    19    20   ar
    37    19    45    1
    38    20    21    1
    39    21    22    1
    40    22    23    1
    41    22    46    1
    42    22    47    1
    43    23    28   ar
    44    23    24   ar
    45    24    25   ar
    46    24    48    1
    47    25    26   ar
    48    25    49    1
    49    26    27   ar
    50    26    50    1
    51    27    28   ar
    52    27    51    1
    53    28    29    1
@<TRIPOS>SUBSTRUCTURE
     1 ZINC000443394081        1 TEMP              0 ****  ****    0 ROOT


##########                                Name:    ZINC000504638019
##########                DOCK_Rotatable_Bonds:                   8
##########                         Heavy_Atoms:                  24
##########                    Molecular_Weight:             328.454
##########                DOCK_Rotatable_Bonds:                   8
##########                       Formal_Charge:        -1.49012e-08
##########                     HBond_Acceptors:                   4
##########                        HBond_Donors:                   1
##########                         Heavy_Atoms:                  24
##########                          Grid_Score:          -28.226143
##########                     Grid_vdw_energy:          -28.021984
##########                      Grid_es_energy:           -0.204159
##########           Internal_energy_repulsive:           17.756052

@<TRIPOS>MOLECULE
ZINC000504638019
 52 53 1 0 0
SMALL
USER_CHARGES


@<TRIPOS>ATOM
      1 C1         -5.5873    1.3868   52.0162 C.3     1  ZINC000504638019   -0.1200
      2 C2         -6.9252    1.0553   52.6256 C.ar    1  ZINC000504638019   -0.0900
      3 C3         -7.5029    1.9195   53.5367 C.ar    1  ZINC000504638019   -0.1200
      4 C4         -8.7300    1.6155   54.0956 C.ar    1  ZINC000504638019   -0.1100
      5 C5         -9.3797    0.4473   53.7431 C.ar    1  ZINC000504638019   -0.0900
      6 C6        -10.7174    0.1156   54.3528 C.3     1  ZINC000504638019   -0.0600
      7 H7        -10.9815    0.8776   55.0861 H       1  ZINC000504638019    0.0900
      8 C8        -11.7820    0.0737   53.2547 C.3     1  ZINC000504638019   -0.1500
      9 C9        -10.6400   -1.2489   55.0405 C.3     1  ZINC000504638019    0.1300
     10 N10       -11.7650   -1.3929   55.9678 N.am    1  ZINC000504638019   -0.7000
     11 C11       -12.0296   -2.5910   56.5256 C.2     1  ZINC000504638019    0.5100
     12 O12       -11.3350   -3.5501   56.2608 O.2     1  ZINC000504638019   -0.5100
     13 C13       -13.1783   -2.7382   57.4702 C.2     1  ZINC000504638019    0.5100
     14 O14       -14.3097   -2.8269   57.0404 O.2     1  ZINC000504638019   -0.5200
     15 N15       -12.9577   -2.7727   58.7993 N.am    1  ZINC000504638019   -0.5800
     16 C16       -14.0838   -2.9171   59.7252 C.3     1  ZINC000504638019    0.0600
     17 C17       -11.5919   -2.6658   59.3181 C.3     1  ZINC000504638019    0.1100
     18 C18       -11.1945   -1.1911   59.4081 C.3     1  ZINC000504638019   -0.1000
     19 H19       -10.9946   -0.8038   58.4090 H       1  ZINC000504638019    0.0800
     20 C20        -9.9419   -1.0479   60.2754 C.3     1  ZINC000504638019   -0.0800
     21 C21        -9.6942    0.3983   60.5909 C.2     1  ZINC000504638019   -0.1500
     22 C22       -10.5830    1.3307   60.4643 C.2     1  ZINC000504638019   -0.1600
     23 C23       -11.9823    1.0978   59.9747 C.3     1  ZINC000504638019   -0.0900
     24 C24       -12.3315   -0.3891   60.0539 C.3     1  ZINC000504638019   -0.1100
     25 C25        -8.8027   -0.4162   52.8309 C.ar    1  ZINC000504638019   -0.1100
     26 C26        -7.5772   -0.1103   52.2691 C.ar    1  ZINC000504638019   -0.1200
     27 H27        -5.7366    1.9648   51.1042 H       1  ZINC000504638019    0.0700
     28 H28        -5.0001    1.9712   52.7247 H       1  ZINC000504638019    0.0700
     29 H29        -5.0574    0.4643   51.7791 H       1  ZINC000504638019    0.0700
     30 H30        -6.9953    2.8321   53.8122 H       1  ZINC000504638019    0.1200
     31 H31        -9.1810    2.2904   54.8081 H       1  ZINC000504638019    0.1200
     32 H32       -12.7495   -0.1663   53.6958 H       1  ZINC000504638019    0.0600
     33 H33       -11.8372    1.0458   52.7648 H       1  ZINC000504638019    0.0600
     34 H34       -11.5179   -0.6883   52.5215 H       1  ZINC000504638019    0.0600
     35 H35       -10.6852   -2.0375   54.2894 H       1  ZINC000504638019    0.0800
     36 H36        -9.7027   -1.3254   55.5917 H       1  ZINC000504638019    0.0800
     37 H37       -12.3195   -0.6259   56.1804 H       1  ZINC000504638019    0.4100
     38 H38       -14.3356   -3.9725   59.8294 H       1  ZINC000504638019    0.0600
     39 H39       -13.8082   -2.5116   60.6987 H       1  ZINC000504638019    0.0700
     40 H40       -14.9457   -2.3747   59.3364 H       1  ZINC000504638019    0.1100
     41 H41       -11.5435   -3.1162   60.3095 H       1  ZINC000504638019    0.0900
     42 H42       -10.9071   -3.1864   58.6488 H       1  ZINC000504638019    0.0900
     43 H43       -10.0803   -1.6017   61.2041 H       1  ZINC000504638019    0.0800
     44 H44        -9.0834   -1.4531   59.7400 H       1  ZINC000504638019    0.0600
     45 H45        -8.7134    0.6783   60.9459 H       1  ZINC000504638019    0.1000
     46 H46       -10.3000    2.3392   60.7276 H       1  ZINC000504638019    0.1000
     47 H47       -12.6796    1.6668   60.5896 H       1  ZINC000504638019    0.0700
     48 H48       -12.0629    1.4293   58.9396 H       1  ZINC000504638019    0.0700
     49 H49       -13.2651   -0.5749   59.5230 H       1  ZINC000504638019    0.0700
     50 H50       -12.4345   -0.6863   61.0976 H       1  ZINC000504638019    0.0700
     51 H51        -9.3104   -1.3287   52.5551 H       1  ZINC000504638019    0.1200
     52 H52        -7.1265   -0.7850   51.5564 H       1  ZINC000504638019    0.1200
@<TRIPOS>BOND
     1     1     2    1
     2     1    27    1
     3     1    28    1
     4     1    29    1
     5     2    26   ar
     6     2     3   ar
     7     3     4   ar
     8     3    30    1
     9     4     5   ar
    10     4    31    1
    11     5     6    1
    12     5    25   ar
    13     6     7    1
    14     6     8    1
    15     6     9    1
    16     8    32    1
    17     8    33    1
    18     8    34    1
    19     9    10    1
    20     9    35    1
    21     9    36    1
    22    10    11   am
    23    10    37    1
    24    11    12    2
    25    11    13    1
    26    13    14    2
    27    13    15   am
    28    15    16    1
    29    15    17    1
    30    16    38    1
    31    16    39    1
    32    16    40    1
    33    17    18    1
    34    17    41    1
    35    17    42    1
    36    18    19    1
    37    18    24    1
    38    18    20    1
    39    20    21    1
    40    20    43    1
    41    20    44    1
    42    21    22    2
    43    21    45    1
    44    22    23    1
    45    22    46    1
    46    23    24    1
    47    23    47    1
    48    23    48    1
    49    24    49    1
    50    24    50    1
    51    25    26   ar
    52    25    51    1
    53    26    52    1
@<TRIPOS>SUBSTRUCTURE
     1 ZINC000504638019        1 TEMP              0 ****  ****    0 ROOT


##########                                Name:    ZINC000866717058
##########                DOCK_Rotatable_Bonds:                   7
##########                         Heavy_Atoms:                  25
##########                    Molecular_Weight:             380.388
##########                DOCK_Rotatable_Bonds:                   7
##########                       Formal_Charge:                0.04
##########                     HBond_Acceptors:                  10
##########                        HBond_Donors:                   1
##########                         Heavy_Atoms:                  25
##########                          Grid_Score:          -28.221472
##########                     Grid_vdw_energy:          -27.487150
##########                      Grid_es_energy:           -0.734322
##########           Internal_energy_repulsive:           11.762179

@<TRIPOS>MOLECULE
ZINC000866717058
 44 45 1 0 0
SMALL
USER_CHARGES


@<TRIPOS>ATOM
      1 C1         -8.0170    1.0910   56.9967 C.3     1  ZINC000866717058   -0.1100
      2 C2         -8.5597    0.8290   55.6156 C.ar    1  ZINC000866717058    0.2400
      3 N3         -7.8108    1.0795   54.5624 N.ar    1  ZINC000866717058   -0.5500
      4 C4         -8.2455    0.8649   53.3300 C.ar    1  ZINC000866717058    0.3500
      5 O5         -7.4352    1.1386   52.2790 O.3     1  ZINC000866717058   -0.2800
      6 C6         -6.4103    2.1126   52.4865 C.3     1  ZINC000866717058    0.0500
      7 H7         -6.1505    2.1471   53.5445 H       1  ZINC000866717058    0.1300
      8 C8         -5.1734    1.7333   51.6697 C.3     1  ZINC000866717058   -0.1700
      9 C9         -6.9145    3.4864   52.0402 C.3     1  ZINC000866717058    0.4600
     10 F10        -5.8699    4.4139   52.1163 F       1  ZINC000866717058   -0.1700
     11 F11        -7.3739    3.4087   50.7211 F       1  ZINC000866717058   -0.1700
     12 F12        -7.9609    3.8931   52.8752 F       1  ZINC000866717058   -0.1700
     13 C13        -9.5219    0.3620   53.0988 C.ar    1  ZINC000866717058   -0.1900
     14 C14       -10.3424    0.0846   54.1731 C.ar    1  ZINC000866717058    0.0000
     15 C15        -9.8496    0.3178   55.4653 C.ar    1  ZINC000866717058   -0.2300
     16 C16       -10.6868    0.0373   56.6483 C.2     1  ZINC000866717058    0.5800
     17 O17       -11.3636    0.9211   57.1374 O.2     1  ZINC000866717058   -0.5200
     18 N18       -10.7010   -1.1984   57.1863 N.am    1  ZINC000866717058   -0.7400
     19 C19       -11.5306   -1.4762   58.3613 C.3     1  ZINC000866717058    0.1400
     20 C20       -12.8895   -2.0153   57.9101 C.3     1  ZINC000866717058   -0.5700
     21 H21       -13.3135   -1.3856   57.1279 H       1  ZINC000866717058    0.1500
     22 C22       -12.7664   -3.4838   57.4279 C.3     1  ZINC000866717058   -0.1100
     23 C23       -14.1840   -4.0810   57.4694 C.3     1  ZINC000866717058   -0.1200
     24 C24       -14.8313   -3.7246   58.8224 C.3     1  ZINC000866717058   -0.5900
     25 S25       -14.0397   -2.1512   59.3306 S.o2    1  ZINC000866717058    2.3700
     26 O26       -13.2912   -2.3633   60.5197 O.2     1  ZINC000866717058   -0.9200
     27 O27       -14.9964   -1.1022   59.2715 O.2     1  ZINC000866717058   -0.9300
     28 H28        -7.6191    0.1653   57.4124 H       1  ZINC000866717058    0.0900
     29 H29        -7.2223    1.8348   56.9398 H       1  ZINC000866717058    0.0700
     30 H30        -8.8170    1.4624   57.6372 H       1  ZINC000866717058    0.1100
     31 H31        -4.3917    2.4762   51.8279 H       1  ZINC000866717058    0.0900
     32 H32        -4.8142    0.7546   51.9876 H       1  ZINC000866717058    0.0900
     33 H33        -5.4332    1.6990   50.6117 H       1  ZINC000866717058    0.0800
     34 H34        -9.8670    0.1909   52.0898 H       1  ZINC000866717058    0.1600
     35 H35       -11.3380   -0.3061   54.0227 H       1  ZINC000866717058    0.1500
     36 H36       -10.1620   -1.9037   56.7953 H       1  ZINC000866717058    0.4000
     37 H37       -11.0356   -2.2177   58.9884 H       1  ZINC000866717058    0.1000
     38 H38       -11.6747   -0.5575   58.9299 H       1  ZINC000866717058    0.1000
     39 H39       -12.3795   -3.5111   56.4093 H       1  ZINC000866717058    0.1100
     40 H40       -12.1071   -4.0411   58.0933 H       1  ZINC000866717058    0.0900
     41 H41       -14.7805   -3.6656   56.6571 H       1  ZINC000866717058    0.0900
     42 H42       -14.1285   -5.1644   57.3637 H       1  ZINC000866717058    0.1000
     43 H43       -15.9055   -3.5836   58.7027 H       1  ZINC000866717058    0.1400
     44 H44       -14.6307   -4.5059   59.5555 H       1  ZINC000866717058    0.1400
@<TRIPOS>BOND
     1     1     2    1
     2     1    28    1
     3     1    29    1
     4     1    30    1
     5     2    15   ar
     6     2     3   ar
     7     3     4   ar
     8     4     5    1
     9     4    13   ar
    10     5     6    1
    11     6     7    1
    12     6     8    1
    13     6     9    1
    14     8    31    1
    15     8    32    1
    16     8    33    1
    17     9    10    1
    18     9    11    1
    19     9    12    1
    20    13    14   ar
    21    13    34    1
    22    14    15   ar
    23    14    35    1
    24    15    16    1
    25    16    17    2
    26    16    18   am
    27    18    19    1
    28    18    36    1
    29    19    20    1
    30    19    37    1
    31    19    38    1
    32    20    21    1
    33    20    25    1
    34    20    22    1
    35    22    23    1
    36    22    39    1
    37    22    40    1
    38    23    24    1
    39    23    41    1
    40    23    42    1
    41    24    25    1
    42    24    43    1
    43    24    44    1
    44    25    26    2
    45    25    27    2
@<TRIPOS>SUBSTRUCTURE
     1 ZINC000866717058        1 TEMP              0 ****  ****    0 ROOT


##########                                Name:    ZINC001085711660
##########                DOCK_Rotatable_Bonds:                   8
##########                         Heavy_Atoms:                  25
##########                    Molecular_Weight:             347.414
##########                DOCK_Rotatable_Bonds:                   8
##########                       Formal_Charge:         -0.00999993
##########                     HBond_Acceptors:                   7
##########                        HBond_Donors:                   0
##########                         Heavy_Atoms:                  25
##########                          Grid_Score:          -28.218866
##########                     Grid_vdw_energy:          -25.580112
##########                      Grid_es_energy:           -2.638753
##########           Internal_energy_repulsive:           12.394300

@<TRIPOS>MOLECULE
ZINC001085711660
 50 52 1 0 0
SMALL
USER_CHARGES


@<TRIPOS>ATOM
      1 C1        -10.7782    2.4263   66.2482 C.3     1  ZINC001085711660    0.0300
      2 O2        -10.6366    1.8492   64.9486 O.3     1  ZINC001085711660   -0.3800
      3 C3         -9.2901    1.5172   64.6037 C.3     1  ZINC001085711660    0.1400
      4 C4         -9.2585    0.9206   63.2202 C.2     1  ZINC001085711660    0.0100
      5 C5         -8.3883   -0.0186   62.7880 C.2     1  ZINC001085711660   -0.1900
      6 C6         -8.7067   -0.2915   61.4484 C.2     1  ZINC001085711660   -0.1200
      7 C7         -9.7682    0.5050   61.1272 C.2     1  ZINC001085711660   -0.0700
      8 C8        -10.4423    0.5590   59.8259 C.2     1  ZINC001085711660    0.6000
      9 O9        -11.5294    0.0313   59.6812 O.2     1  ZINC001085711660   -0.5200
     10 N10        -9.8579    1.1930   58.7900 N.am    1  ZINC001085711660   -0.6000
     11 C11        -8.5492    1.8282   58.9640 C.3     1  ZINC001085711660    0.0700
     12 C12       -10.5312    1.2470   57.4900 C.3     1  ZINC001085711660    0.1300
     13 C13        -9.5302    0.9105   56.3829 C.3     1  ZINC001085711660    0.0000
     14 H14        -8.6444    0.3975   56.7574 H       1  ZINC001085711660    0.1000
     15 C15        -9.2071    2.1003   55.4683 C.3     1  ZINC001085711660   -0.1400
     16 C16        -9.2355    1.0362   54.3621 C.3     1  ZINC001085711660    0.0100
     17 N17       -10.1442    0.2477   55.2172 N.3     1  ZINC001085711660   -0.4500
     18 C18        -9.7977   -1.1793   55.1781 C.3     1  ZINC001085711660    0.1500
     19 H19        -8.8241   -1.3298   55.6446 H       1  ZINC001085711660    0.1000
     20 C20        -9.7448   -1.6517   53.7237 C.3     1  ZINC001085711660   -0.1900
     21 C21       -10.8404   -1.9701   55.9255 C.2     1  ZINC001085711660    0.2000
     22 N22       -10.6869   -3.1760   56.3933 N.2     1  ZINC001085711660   -0.4700
     23 C23       -11.8275   -3.5522   56.9981 C.2     1  ZINC001085711660   -0.0400
     24 C24       -12.7000   -2.5365   56.8911 C.2     1  ZINC001085711660   -0.0500
     25 C25       -14.1097   -2.5073   57.4232 C.3     1  ZINC001085711660   -0.0700
     26 O26       -12.0759   -1.5464   56.2232 O.3     1  ZINC001085711660   -0.2000
     27 O27       -10.0916    1.2297   62.2182 O.3     1  ZINC001085711660   -0.1500
     28 H28       -10.4179    1.7233   66.9991 H       1  ZINC001085711660    0.0500
     29 H29       -10.1960    3.3463   66.3026 H       1  ZINC001085711660    0.0500
     30 H30       -11.8288    2.6497   66.4340 H       1  ZINC001085711660    0.0900
     31 H31        -8.6769    2.4180   64.6250 H       1  ZINC001085711660    0.0900
     32 H32        -8.8992    0.7946   65.3200 H       1  ZINC001085711660    0.0700
     33 H33        -7.5967   -0.4737   63.3648 H       1  ZINC001085711660    0.1600
     34 H34        -8.2085   -0.9951   60.7979 H       1  ZINC001085711660    0.1600
     35 H35        -7.7640    1.0827   58.8387 H       1  ZINC001085711660    0.0600
     36 H36        -8.4254    2.6148   58.2198 H       1  ZINC001085711660    0.0900
     37 H37        -8.4847    2.2595   59.9629 H       1  ZINC001085711660    0.0800
     38 H38       -11.3476    0.5249   57.4734 H       1  ZINC001085711660    0.0900
     39 H39       -10.9289    2.2488   57.3281 H       1  ZINC001085711660    0.0900
     40 H40       -10.0056    2.8388   55.3978 H       1  ZINC001085711660    0.1000
     41 H41        -8.2246    2.5406   55.6390 H       1  ZINC001085711660    0.0800
     42 H42        -9.6989    1.3825   53.4384 H       1  ZINC001085711660    0.0900
     43 H43        -8.2710    0.5562   54.1965 H       1  ZINC001085711660    0.0800
     44 H44       -10.6819   -1.4019   53.2263 H       1  ZINC001085711660    0.0800
     45 H45        -8.9187   -1.1586   53.2114 H       1  ZINC001085711660    0.0800
     46 H46        -9.5960   -2.7312   53.6976 H       1  ZINC001085711660    0.0700
     47 H47       -12.0094   -4.5003   57.4824 H       1  ZINC001085711660    0.1800
     48 H48       -14.1064   -2.1124   58.4392 H       1  ZINC001085711660    0.0800
     49 H49       -14.7248   -1.8702   56.7878 H       1  ZINC001085711660    0.0800
     50 H50       -14.5173   -3.5181   57.4276 H       1  ZINC001085711660    0.0900
@<TRIPOS>BOND
     1     1     2    1
     2     1    28    1
     3     1    29    1
     4     1    30    1
     5     2     3    1
     6     3     4    1
     7     3    31    1
     8     3    32    1
     9     4    27    1
    10     4     5    2
    11     5     6    1
    12     5    33    1
    13     6     7    2
    14     6    34    1
    15     7     8    1
    16     7    27    1
    17     8     9    2
    18     8    10   am
    19    10    11    1
    20    10    12    1
    21    11    35    1
    22    11    36    1
    23    11    37    1
    24    12    13    1
    25    12    38    1
    26    12    39    1
    27    13    14    1
    28    13    17    1
    29    13    15    1
    30    15    16    1
    31    15    40    1
    32    15    41    1
    33    16    17    1
    34    16    42    1
    35    16    43    1
    36    17    18    1
    37    18    19    1
    38    18    20    1
    39    18    21    1
    40    20    44    1
    41    20    45    1
    42    20    46    1
    43    21    26    1
    44    21    22    2
    45    22    23    1
    46    23    24    2
    47    23    47    1
    48    24    25    1
    49    24    26    1
    50    25    48    1
    51    25    49    1
    52    25    50    1
@<TRIPOS>SUBSTRUCTURE
     1 ZINC001085711660        1 TEMP              0 ****  ****    0 ROOT


##########                                Name:    ZINC000508571532
##########                DOCK_Rotatable_Bonds:                   9
##########                         Heavy_Atoms:                  30
##########                    Molecular_Weight:             422.407
##########                DOCK_Rotatable_Bonds:                   9
##########                       Formal_Charge:           0.0100001
##########                     HBond_Acceptors:                  10
##########                        HBond_Donors:                   0
##########                         Heavy_Atoms:                  30
##########                          Grid_Score:          -28.208548
##########                     Grid_vdw_energy:          -27.843431
##########                      Grid_es_energy:           -0.365117
##########           Internal_energy_repulsive:           22.839214

@<TRIPOS>MOLECULE
ZINC000508571532
 51 53 1 0 0
SMALL
USER_CHARGES


@<TRIPOS>ATOM
      1 C1         -2.0116    3.8206   56.0017 C.3     1  ZINC000508571532    0.0300
      2 O2         -3.2647    4.4587   55.7479 O.3     1  ZINC000508571532   -0.3200
      3 C3         -3.9045    4.1263   54.5949 C.ar    1  ZINC000508571532    0.0900
      4 C4         -3.3398    3.2001   53.7308 C.ar    1  ZINC000508571532   -0.1700
      5 C5         -3.9896    2.8624   52.5595 C.ar    1  ZINC000508571532   -0.1100
      6 C6         -5.2071    3.4492   52.2481 C.ar    1  ZINC000508571532    0.0900
      7 O7         -5.8466    3.1171   51.0949 O.3     1  ZINC000508571532   -0.3100
      8 C8         -7.2742    3.0668   51.1359 C.3     1  ZINC000508571532    0.1500
      9 C9         -7.7118    2.0467   52.1552 C.2     1  ZINC000508571532    0.1700
     10 N10        -7.1957    0.8638   52.3347 N.2     1  ZINC000508571532   -0.2500
     11 N11        -7.8084    0.2556   53.2869 N.2     1  ZINC000508571532   -0.3000
     12 C12        -8.7558    1.0241   53.7700 C.2     1  ZINC000508571532    0.3500
     13 N13        -9.6248    0.7102   54.8029 N.3     1  ZINC000508571532   -0.4600
     14 C14       -10.9001    0.2006   54.2814 C.3     1  ZINC000508571532    0.0300
     15 C15        -9.0139   -0.2507   55.7310 C.3     1  ZINC000508571532    0.1100
     16 C16        -8.6920    0.4412   57.0306 C.ar    1  ZINC000508571532   -0.0900
     17 C17        -7.6937    1.3945   57.0773 C.ar    1  ZINC000508571532   -0.0600
     18 C18        -7.3975    2.0293   58.2695 C.ar    1  ZINC000508571532   -0.1300
     19 C19        -8.0998    1.7123   59.4172 C.ar    1  ZINC000508571532   -0.0700
     20 C20        -9.0997    0.7597   59.3757 C.ar    1  ZINC000508571532   -0.1900
     21 C21        -9.4023    0.1252   58.1799 C.ar    1  ZINC000508571532    0.1100
     22 O22       -10.3854   -0.8121   58.1365 O.3     1  ZINC000508571532   -0.3100
     23 C23       -10.1323   -2.0491   58.8056 C.3     1  ZINC000508571532    0.6000
     24 F24       -10.2814   -1.8721   60.1854 F       1  ZINC000508571532   -0.1600
     25 F25       -11.0401   -3.0153   58.3587 F       1  ZINC000508571532   -0.1300
     26 F26        -8.8278   -2.4711   58.5280 F       1  ZINC000508571532   -0.1600
     27 N27        -8.7202    2.1932   53.0671 N.pl3   1  ZINC000508571532   -0.4500
     28 C28        -9.5884    3.3595   53.2458 C.3     1  ZINC000508571532    0.0800
     29 C29        -5.7725    4.3744   53.1129 C.ar    1  ZINC000508571532   -0.1700
     30 C30        -5.1245    4.7093   54.2859 C.ar    1  ZINC000508571532   -0.1100
     31 H31        -1.6095    4.1742   56.9511 H       1  ZINC000508571532    0.1000
     32 H32        -2.1563    2.7412   56.0478 H       1  ZINC000508571532    0.0600
     33 H33        -1.3131    4.0597   55.1998 H       1  ZINC000508571532    0.0600
     34 H34        -2.3918    2.7431   53.9734 H       1  ZINC000508571532    0.1400
     35 H35        -3.5496    2.1416   51.8863 H       1  ZINC000508571532    0.1300
     36 H36        -7.6645    4.0464   51.4116 H       1  ZINC000508571532    0.0800
     37 H37        -7.6562    2.7865   50.1543 H       1  ZINC000508571532    0.1000
     38 H38       -10.7399   -0.7725   53.8171 H       1  ZINC000508571532    0.0600
     39 H39       -11.6130    0.0998   55.0997 H       1  ZINC000508571532    0.0800
     40 H40       -11.2936    0.8963   53.5404 H       1  ZINC000508571532    0.0700
     41 H41        -9.7100   -1.0685   55.9176 H       1  ZINC000508571532    0.0700
     42 H42        -8.0975   -0.6463   55.2933 H       1  ZINC000508571532    0.0900
     43 H43        -7.1436    1.6439   56.1819 H       1  ZINC000508571532    0.1400
     44 H44        -6.6160    2.7739   58.3041 H       1  ZINC000508571532    0.1300
     45 H45        -7.8664    2.2093   60.3473 H       1  ZINC000508571532    0.1400
     46 H46        -9.6478    0.5121   60.2728 H       1  ZINC000508571532    0.1400
     47 H47        -9.0982    4.0807   53.8997 H       1  ZINC000508571532    0.0900
     48 H48        -9.7819    3.8203   52.2771 H       1  ZINC000508571532    0.0900
     49 H49       -10.5313    3.0454   53.6935 H       1  ZINC000508571532    0.1000
     50 H50        -6.7207    4.8312   52.8704 H       1  ZINC000508571532    0.1400
     51 H51        -5.5647    5.4298   54.9594 H       1  ZINC000508571532    0.1400
@<TRIPOS>BOND
     1     1     2    1
     2     1    31    1
     3     1    32    1
     4     1    33    1
     5     2     3    1
     6     3    30   ar
     7     3     4   ar
     8     4     5   ar
     9     4    34    1
    10     5     6   ar
    11     5    35    1
    12     6     7    1
    13     6    29   ar
    14     7     8    1
    15     8     9    1
    16     8    36    1
    17     8    37    1
    18     9    27    1
    19     9    10    2
    20    10    11    1
    21    11    12    2
    22    12    13    1
    23    12    27    1
    24    13    14    1
    25    13    15    1
    26    14    38    1
    27    14    39    1
    28    14    40    1
    29    15    16    1
    30    15    41    1
    31    15    42    1
    32    16    21   ar
    33    16    17   ar
    34    17    18   ar
    35    17    43    1
    36    18    19   ar
    37    18    44    1
    38    19    20   ar
    39    19    45    1
    40    20    21   ar
    41    20    46    1
    42    21    22    1
    43    22    23    1
    44    23    24    1
    45    23    25    1
    46    23    26    1
    47    27    28    1
    48    28    47    1
    49    28    48    1
    50    28    49    1
    51    29    30   ar
    52    29    50    1
    53    30    51    1
@<TRIPOS>SUBSTRUCTURE
     1 ZINC000508571532        1 TEMP              0 ****  ****    0 ROOT


##########                                Name:    ZINC000441887161
##########                DOCK_Rotatable_Bonds:                   6
##########                         Heavy_Atoms:                  27
##########                    Molecular_Weight:             383.514
##########                DOCK_Rotatable_Bonds:                   6
##########                       Formal_Charge:          -0.0300002
##########                     HBond_Acceptors:                   6
##########                        HBond_Donors:                   1
##########                         Heavy_Atoms:                  27
##########                          Grid_Score:          -28.205984
##########                     Grid_vdw_energy:          -26.856840
##########                      Grid_es_energy:           -1.349143
##########           Internal_energy_repulsive:           19.440903

@<TRIPOS>MOLECULE
ZINC000441887161
 52 54 1 0 0
SMALL
USER_CHARGES


@<TRIPOS>ATOM
      1 C1         -6.2805    1.0830   52.1306 C.3     1  ZINC000441887161   -0.1200
      2 C2         -7.4490    0.6887   52.9968 C.ar    1  ZINC000441887161   -0.0700
      3 C3         -8.2348   -0.3930   52.6466 C.ar    1  ZINC000441887161   -0.1200
      4 C4         -9.3067   -0.7548   53.4414 C.ar    1  ZINC000441887161   -0.0900
      5 C5         -9.5922   -0.0350   54.5862 C.ar    1  ZINC000441887161   -0.1100
      6 C6        -10.7609   -0.4291   55.4522 C.3     1  ZINC000441887161    0.1900
      7 H7        -10.7012    0.0975   56.4047 H       1  ZINC000441887161    0.1000
      8 C8        -12.0667   -0.0589   54.7459 C.3     1  ZINC000441887161    0.1000
      9 N9        -12.0935    1.3840   54.4937 N.pl3   1  ZINC000441887161   -0.4600
     10 C10       -11.5936    2.0256   53.3927 C.2     1  ZINC000441887161   -0.0500
     11 C11       -11.8286    3.3400   53.5676 C.2     1  ZINC000441887161   -0.0200
     12 N12       -12.4547    3.4968   54.7433 N.2     1  ZINC000441887161   -0.4900
     13 C13       -12.6213    2.3289   55.3013 C.2     1  ZINC000441887161    0.1800
     14 N14       -10.7270   -1.8742   55.6901 N.am    1  ZINC000441887161   -1.1100
     15 S15       -11.4380   -2.5072   57.0451 S.o2    1  ZINC000441887161    2.6900
     16 O16       -12.7760   -2.0289   57.0568 O.2     1  ZINC000441887161   -0.9600
     17 O17       -11.1063   -3.8888   57.0641 O.2     1  ZINC000441887161   -0.9500
     18 C18       -10.6390   -1.7846   58.4393 C.ar    1  ZINC000441887161   -0.6800
     19 C19        -9.3004   -2.0348   58.6753 C.ar    1  ZINC000441887161   -0.0300
     20 C20        -8.6735   -1.4678   59.7693 C.ar    1  ZINC000441887161   -0.1300
     21 C21        -9.3852   -0.6502   60.6268 C.ar    1  ZINC000441887161   -0.0200
     22 C22        -8.7020   -0.0326   61.8196 C.3     1  ZINC000441887161   -0.1300
     23 C23       -10.7240   -0.3989   60.3900 C.ar    1  ZINC000441887161   -0.1000
     24 C24       -11.5000    0.4929   61.3248 C.3     1  ZINC000441887161   -0.1200
     25 C25       -11.3497   -0.9626   59.2943 C.ar    1  ZINC000441887161   -0.0100
     26 C26        -8.8053    1.0462   54.9372 C.ar    1  ZINC000441887161   -0.0700
     27 C27        -9.1163    1.8307   56.1857 C.3     1  ZINC000441887161   -0.1300
     28 C28        -7.7315    1.4056   54.1448 C.ar    1  ZINC000441887161   -0.1200
     29 H29        -5.3873    0.5536   52.4622 H       1  ZINC000441887161    0.0700
     30 H30        -6.4930    0.8232   51.0936 H       1  ZINC000441887161    0.0700
     31 H31        -6.1162    2.1577   52.2095 H       1  ZINC000441887161    0.0700
     32 H32        -8.0117   -0.9555   51.7520 H       1  ZINC000441887161    0.1200
     33 H33        -9.9212   -1.5997   53.1673 H       1  ZINC000441887161    0.1200
     34 H34       -12.1320   -0.5945   53.7988 H       1  ZINC000441887161    0.1100
     35 H35       -12.9117   -0.3331   55.3774 H       1  ZINC000441887161    0.1000
     36 H36       -11.1045    1.5660   52.5465 H       1  ZINC000441887161    0.1700
     37 H37       -11.5598    4.1295   52.8814 H       1  ZINC000441887161    0.1600
     38 H38       -13.0965    2.1486   56.2542 H       1  ZINC000441887161    0.2000
     39 H39       -10.2881   -2.4603   55.0538 H       1  ZINC000441887161    0.4200
     40 H40        -8.7442   -2.6736   58.0053 H       1  ZINC000441887161    0.1300
     41 H41        -7.6276   -1.6639   59.9541 H       1  ZINC000441887161    0.1300
     42 H42        -8.2836    0.9338   61.5385 H       1  ZINC000441887161    0.0800
     43 H43        -9.4264    0.1048   62.6225 H       1  ZINC000441887161    0.0800
     44 H44        -7.9019   -0.6897   62.1607 H       1  ZINC000441887161    0.0700
     45 H45       -11.4330    1.5252   60.9814 H       1  ZINC000441887161    0.0800
     46 H46       -12.5445    0.1821   61.3399 H       1  ZINC000441887161    0.0700
     47 H47       -11.0836    0.4164   62.3292 H       1  ZINC000441887161    0.0700
     48 H48       -12.3955   -0.7662   59.1094 H       1  ZINC000441887161    0.1400
     49 H49        -8.5792    1.3981   57.0298 H       1  ZINC000441887161    0.0800
     50 H50        -8.8065    2.8670   56.0505 H       1  ZINC000441887161    0.0700
     51 H51       -10.1883    1.7945   56.3800 H       1  ZINC000441887161    0.0600
     52 H52        -7.1167    2.2502   54.4190 H       1  ZINC000441887161    0.1300
@<TRIPOS>BOND
     1     1     2    1
     2     1    29    1
     3     1    30    1
     4     1    31    1
     5     2    28   ar
     6     2     3   ar
     7     3     4   ar
     8     3    32    1
     9     4     5   ar
    10     4    33    1
    11     5     6    1
    12     5    26   ar
    13     6     7    1
    14     6     8    1
    15     6    14    1
    16     8     9    1
    17     8    34    1
    18     8    35    1
    19     9    13    1
    20     9    10    1
    21    10    11    2
    22    10    36    1
    23    11    12    1
    24    11    37    1
    25    12    13    2
    26    13    38    1
    27    14    15   am
    28    14    39    1
    29    15    16    2
    30    15    17    2
    31    15    18    1
    32    18    25   ar
    33    18    19   ar
    34    19    20   ar
    35    19    40    1
    36    20    21   ar
    37    20    41    1
    38    21    22    1
    39    21    23   ar
    40    22    42    1
    41    22    43    1
    42    22    44    1
    43    23    24    1
    44    23    25   ar
    45    24    45    1
    46    24    46    1
    47    24    47    1
    48    25    48    1
    49    26    27    1
    50    26    28   ar
    51    27    49    1
    52    27    50    1
    53    27    51    1
    54    28    52    1
@<TRIPOS>SUBSTRUCTURE
     1 ZINC000441887161        1 TEMP              0 ****  ****    0 ROOT


##########                                Name:    ZINC000654672208
##########                DOCK_Rotatable_Bonds:                   5
##########                         Heavy_Atoms:                  25
##########                    Molecular_Weight:             365.497
##########                DOCK_Rotatable_Bonds:                   5
##########                       Formal_Charge:           0.0100001
##########                     HBond_Acceptors:                   7
##########                        HBond_Donors:                   1
##########                         Heavy_Atoms:                  25
##########                          Grid_Score:          -28.194185
##########                     Grid_vdw_energy:          -27.613161
##########                      Grid_es_energy:           -0.581024
##########           Internal_energy_repulsive:           14.064290

@<TRIPOS>MOLECULE
ZINC000654672208
 52 54 1 0 0
SMALL
USER_CHARGES


@<TRIPOS>ATOM
      1 C1          1.5612    2.5591   59.9153 C.3     1  ZINC000654672208   -0.1100
      2 C2          0.3854    2.8152   59.0081 C.ar    1  ZINC000654672208   -0.1300
      3 C3         -0.7660    2.0601   59.1248 C.ar    1  ZINC000654672208    0.1000
      4 N4         -1.7991    2.2787   58.3348 N.ar    1  ZINC000654672208   -0.4700
      5 C5         -1.7777    3.2176   57.4092 C.ar    1  ZINC000654672208    0.1200
      6 C6         -2.9855    3.4265   56.5323 C.3     1  ZINC000654672208   -0.0900
      7 C7         -4.2495    3.0470   57.3063 C.3     1  ZINC000654672208    0.1500
      8 N8         -5.4106    3.1325   56.4172 N.am    1  ZINC000654672208   -0.7500
      9 C9         -6.4658    2.3156   56.6063 C.2     1  ZINC000654672208    0.7100
     10 O10        -6.4539    1.5076   57.5148 O.2     1  ZINC000654672208   -0.5800
     11 N11        -7.5341    2.3943   55.7884 N.am    1  ZINC000654672208   -0.6300
     12 C12        -8.6915    1.5103   55.9824 C.3     1  ZINC000654672208    0.1300
     13 C13        -8.9850    0.7877   54.6640 C.3     1  ZINC000654672208   -0.1400
     14 C14        -9.1633    1.8201   53.5491 C.3     1  ZINC000654672208   -0.1100
     15 C15        -7.8657    2.6194   53.3799 C.3     1  ZINC000654672208   -0.0600
     16 C16        -8.0487    3.6408   52.2526 C.3     1  ZINC000654672208   -0.1200
     17 C17        -6.6721    3.9003   51.5883 C.3     1  ZINC000654672208   -0.5800
     18 S18        -5.9931    2.1943   51.4994 S.o2    1  ZINC000654672208    2.3800
     19 O19        -6.6072    1.4918   50.4276 O.2     1  ZINC000654672208   -0.9300
     20 O20        -4.5766    2.2387   51.6030 O.2     1  ZINC000654672208   -0.9300
     21 C21        -6.7141    1.6414   53.0901 C.3     1  ZINC000654672208   -0.5800
     22 C22        -7.5650    3.3694   54.6905 C.3     1  ZINC000654672208    0.1200
     23 C23        -0.6607    4.0126   57.2342 C.ar    1  ZINC000654672208   -0.1200
     24 C24        -0.6449    5.0837   56.1742 C.3     1  ZINC000654672208   -0.1200
     25 C25         0.4432    3.8155   58.0494 C.ar    1  ZINC000654672208   -0.0800
     26 H26         1.4672    3.1699   60.8131 H       1  ZINC000654672208    0.0700
     27 H27         1.5827    1.5053   60.1933 H       1  ZINC000654672208    0.0700
     28 H28         2.4840    2.8166   59.3955 H       1  ZINC000654672208    0.0700
     29 H29        -0.8203    1.2816   59.8714 H       1  ZINC000654672208    0.1600
     30 H30        -3.0420    4.4738   56.2353 H       1  ZINC000654672208    0.0900
     31 H31        -2.9019    2.8008   55.6437 H       1  ZINC000654672208    0.0900
     32 H32        -4.1535    2.0282   57.6817 H       1  ZINC000654672208    0.0700
     33 H33        -4.3820    3.7318   58.1439 H       1  ZINC000654672208    0.0700
     34 H34        -5.4200    3.7770   55.6924 H       1  ZINC000654672208    0.3900
     35 H35        -8.4664    0.7784   56.7583 H       1  ZINC000654672208    0.1000
     36 H36        -9.5584    2.1023   56.2757 H       1  ZINC000654672208    0.0700
     37 H37        -8.1536    0.1269   54.4184 H       1  ZINC000654672208    0.0700
     38 H38        -9.8982    0.2012   54.7661 H       1  ZINC000654672208    0.0800
     39 H39        -9.3999    1.3096   52.6156 H       1  ZINC000654672208    0.0800
     40 H40        -9.9764    2.4981   53.8084 H       1  ZINC000654672208    0.0800
     41 H41        -8.7450    3.2481   51.5117 H       1  ZINC000654672208    0.1000
     42 H42        -8.4394    4.5724   52.6621 H       1  ZINC000654672208    0.1000
     43 H43        -6.7915    4.3273   50.5926 H       1  ZINC000654672208    0.1400
     44 H44        -6.0486    4.5384   52.2144 H       1  ZINC000654672208    0.1400
     45 H45        -5.9666    1.6937   53.8815 H       1  ZINC000654672208    0.1400
     46 H46        -7.0966    0.6249   52.9979 H       1  ZINC000654672208    0.1400
     47 H47        -8.3428    4.1107   54.8740 H       1  ZINC000654672208    0.0800
     48 H48        -6.5965    3.8636   54.6149 H       1  ZINC000654672208    0.0800
     49 H49        -1.0160    6.0178   56.5960 H       1  ZINC000654672208    0.0800
     50 H50         0.3749    5.2263   55.8169 H       1  ZINC000654672208    0.0700
     51 H51        -1.2822    4.7818   55.3431 H       1  ZINC000654672208    0.0700
     52 H52         1.3298    4.4216   57.9355 H       1  ZINC000654672208    0.1300
@<TRIPOS>BOND
     1     1     2    1
     2     1    26    1
     3     1    27    1
     4     1    28    1
     5     2    25   ar
     6     2     3   ar
     7     3     4   ar
     8     3    29    1
     9     4     5   ar
    10     5     6    1
    11     5    23   ar
    12     6     7    1
    13     6    30    1
    14     6    31    1
    15     7     8    1
    16     7    32    1
    17     7    33    1
    18     8     9   am
    19     8    34    1
    20     9    10    2
    21     9    11   am
    22    11    22    1
    23    11    12    1
    24    12    13    1
    25    12    35    1
    26    12    36    1
    27    13    14    1
    28    13    37    1
    29    13    38    1
    30    14    15    1
    31    14    39    1
    32    14    40    1
    33    15    21    1
    34    15    16    1
    35    15    22    1
    36    16    17    1
    37    16    41    1
    38    16    42    1
    39    17    18    1
    40    17    43    1
    41    17    44    1
    42    18    19    2
    43    18    20    2
    44    18    21    1
    45    21    45    1
    46    21    46    1
    47    22    47    1
    48    22    48    1
    49    23    24    1
    50    23    25   ar
    51    24    49    1
    52    24    50    1
    53    24    51    1
    54    25    52    1
@<TRIPOS>SUBSTRUCTURE
     1 ZINC000654672208        1 TEMP              0 ****  ****    0 ROOT


##########                                Name:    ZINC000371438955
##########                DOCK_Rotatable_Bonds:                   4
##########                         Heavy_Atoms:                  25
##########                    Molecular_Weight:             387.499
##########                DOCK_Rotatable_Bonds:                   4
##########                       Formal_Charge:          -0.0299995
##########                     HBond_Acceptors:                   9
##########                        HBond_Donors:                   1
##########                         Heavy_Atoms:                  25
##########                          Grid_Score:          -28.144550
##########                     Grid_vdw_energy:          -26.159792
##########                      Grid_es_energy:           -1.984757
##########           Internal_energy_repulsive:           31.025661

@<TRIPOS>MOLECULE
ZINC000371438955
 47 49 1 0 0
SMALL
USER_CHARGES


@<TRIPOS>ATOM
      1 C1        -14.6328    1.3933   60.5000 C.3     1  ZINC000371438955   -0.6800
      2 S2        -15.2562   -0.3039   60.6463 S.o2    1  ZINC000371438955    2.6000
      3 O3        -14.2164   -1.1839   61.0511 O.2     1  ZINC000371438955   -0.9500
      4 O4        -16.5206   -0.3166   61.2948 O.2     1  ZINC000371438955   -0.9500
      5 N5        -15.5913   -0.7567   59.0891 N.am    1  ZINC000371438955   -0.9900
      6 C6        -16.1119   -2.0712   58.8451 C.3     1  ZINC000371438955    0.1300
      7 C7        -14.9213   -3.0355   58.7110 C.3     1  ZINC000371438955   -0.1700
      8 C8        -14.2853   -2.9391   57.3877 C.3     1  ZINC000371438955    0.1400
      9 N9        -13.8196   -1.5542   57.1394 N.am    1  ZINC000371438955   -0.6200
     10 C10       -12.5125   -1.2505   57.2659 C.2     1  ZINC000371438955    0.7100
     11 O11       -12.1299   -0.1146   57.0622 O.2     1  ZINC000371438955   -0.5800
     12 N12       -11.6297   -2.2061   57.6179 N.am    1  ZINC000371438955   -0.7400
     13 C13       -10.2090   -1.8761   57.7554 C.3     1  ZINC000371438955    0.2000
     14 H14        -9.6484   -2.8009   57.8913 H       1  ZINC000371438955    0.1100
     15 C15       -10.0280   -1.0119   58.9912 C.3     1  ZINC000371438955   -0.1300
     16 C16        -8.5359   -0.6956   59.1648 C.3     1  ZINC000371438955   -0.1100
     17 S17        -8.0826    0.4995   57.8746 S.3     1  ZINC000371438955   -0.1000
     18 C18        -8.8147   -0.1979   56.4284 C.ar    1  ZINC000371438955   -0.1100
     19 C19        -8.4248    0.3177   55.1891 C.ar    1  ZINC000371438955    0.1100
     20 F20        -7.5084    1.3089   55.1347 F       1  ZINC000371438955   -0.1300
     21 C21        -8.9669   -0.1768   54.0211 C.ar    1  ZINC000371438955   -0.1300
     22 C22        -9.9070   -1.1897   54.0822 C.ar    1  ZINC000371438955   -0.1000
     23 C23       -10.2906   -1.7014   55.3025 C.ar    1  ZINC000371438955   -0.1000
     24 C24        -9.7451   -1.2147   56.4909 C.ar    1  ZINC000371438955   -0.0800
     25 C25       -14.7598   -0.5355   56.7637 C.3     1  ZINC000371438955    0.1000
     26 C26       -15.3485    0.2153   57.9881 C.3     1  ZINC000371438955    0.0900
     27 H27       -13.7409    1.4001   59.8734 H       1  ZINC000371438955    0.1300
     28 H28       -15.3986    2.0241   60.0488 H       1  ZINC000371438955    0.1300
     29 H29       -14.3842    1.7757   61.4901 H       1  ZINC000371438955    0.1300
     30 H30       -16.7429   -2.3783   59.6792 H       1  ZINC000371438955    0.0800
     31 H31       -16.6927   -2.0722   57.9228 H       1  ZINC000371438955    0.0800
     32 H32       -14.1838   -2.7978   59.4775 H       1  ZINC000371438955    0.0800
     33 H33       -15.2725   -4.0562   58.8626 H       1  ZINC000371438955    0.0900
     34 H34       -13.4342   -3.6188   57.3463 H       1  ZINC000371438955    0.0900
     35 H35       -15.0059   -3.2205   56.6198 H       1  ZINC000371438955    0.0700
     36 H36       -11.9350   -3.1123   57.7803 H       1  ZINC000371438955    0.4000
     37 H37       -10.5863   -0.0833   58.8719 H       1  ZINC000371438955    0.0900
     38 H38       -10.3917   -1.5480   59.8677 H       1  ZINC000371438955    0.1000
     39 H39        -8.3608   -0.2623   60.1495 H       1  ZINC000371438955    0.1200
     40 H40        -7.9479   -1.6063   59.0497 H       1  ZINC000371438955    0.1000
     41 H41        -8.6600    0.2239   53.0664 H       1  ZINC000371438955    0.1400
     42 H42       -10.3406   -1.5793   53.1731 H       1  ZINC000371438955    0.1300
     43 H43       -11.0267   -2.4909   55.3397 H       1  ZINC000371438955    0.1400
     44 H44       -14.2597    0.1841   56.1156 H       1  ZINC000371438955    0.0800
     45 H45       -15.5774   -0.9971   56.2103 H       1  ZINC000371438955    0.0900
     46 H46       -16.2858    0.6939   57.7047 H       1  ZINC000371438955    0.0800
     47 H47       -14.6406    0.9727   58.3248 H       1  ZINC000371438955    0.1000
@<TRIPOS>BOND
     1     1     2    1
     2     1    27    1
     3     1    28    1
     4     1    29    1
     5     2     3    2
     6     2     4    2
     7     2     5   am
     8     5    26    1
     9     5     6    1
    10     6     7    1
    11     6    30    1
    12     6    31    1
    13     7     8    1
    14     7    32    1
    15     7    33    1
    16     8     9    1
    17     8    34    1
    18     8    35    1
    19     9    10   am
    20     9    25    1
    21    10    11    2
    22    10    12   am
    23    12    13    1
    24    12    36    1
    25    13    14    1
    26    13    24    1
    27    13    15    1
    28    15    16    1
    29    15    37    1
    30    15    38    1
    31    16    17    1
    32    16    39    1
    33    16    40    1
    34    17    18    1
    35    18    24   ar
    36    18    19   ar
    37    19    20    1
    38    19    21   ar
    39    21    22   ar
    40    21    41    1
    41    22    23   ar
    42    22    42    1
    43    23    24   ar
    44    23    43    1
    45    25    26    1
    46    25    44    1
    47    25    45    1
    48    26    46    1
    49    26    47    1
@<TRIPOS>SUBSTRUCTURE
     1 ZINC000371438955        1 TEMP              0 ****  ****    0 ROOT


##########                                Name:    ZINC000474368324
##########                DOCK_Rotatable_Bonds:                   9
##########                         Heavy_Atoms:                  27
##########                    Molecular_Weight:             417.332
##########                DOCK_Rotatable_Bonds:                   9
##########                       Formal_Charge:        -1.63913e-07
##########                     HBond_Acceptors:                   8
##########                        HBond_Donors:                   1
##########                         Heavy_Atoms:                  27
##########                          Grid_Score:          -28.136948
##########                     Grid_vdw_energy:          -28.389658
##########                      Grid_es_energy:            0.252711
##########           Internal_energy_repulsive:           43.869183

@<TRIPOS>MOLECULE
ZINC000474368324
 53 54 1 0 0
SMALL
USER_CHARGES


@<TRIPOS>ATOM
      1 C1         -4.9843    2.1812   52.1170 C.3     1  ZINC000474368324   -0.1500
      2 C2         -6.2800    2.9174   51.7704 C.3     1  ZINC000474368324    0.0600
      3 O3         -7.3168    1.9506   51.4562 O.3     1  ZINC000474368324   -0.3300
      4 C4         -7.6459    1.0753   52.4191 C.2     1  ZINC000474368324    0.4700
      5 O5         -7.5346   -0.1114   52.2206 O.2     1  ZINC000474368324   -0.5100
      6 C6         -8.1540    1.5726   53.7479 C.3     1  ZINC000474368324   -0.0400
      7 C7         -8.9035    2.8910   53.5460 C.3     1  ZINC000474368324    0.0600
      8 O8         -9.8106    2.7602   52.4496 O.3     1  ZINC000474368324   -0.3700
      9 C9        -11.1881    2.7818   52.8291 C.3     1  ZINC000474368324    0.0300
     10 C10        -9.1026    0.5345   54.3519 C.3     1  ZINC000474368324   -0.1200
     11 C11        -9.6439    1.0583   55.6858 C.3     1  ZINC000474368324    0.1100
     12 N12        -8.5098    1.4141   56.5495 N.am    1  ZINC000474368324   -0.6300
     13 C13        -8.4071    0.9044   57.7928 C.2     1  ZINC000474368324    0.7100
     14 O14        -7.4637    1.2067   58.4978 O.2     1  ZINC000474368324   -0.5800
     15 N15        -9.3502    0.0596   58.2549 N.am    1  ZINC000474368324   -0.7400
     16 C16        -9.2386   -0.4944   59.6064 C.3     1  ZINC000474368324    0.2000
     17 H17        -8.2100   -0.3995   59.9543 H       1  ZINC000474368324    0.1100
     18 C18        -9.6358   -1.9718   59.5863 C.3     1  ZINC000474368324   -0.1600
     19 C19       -10.1548    0.2594   60.5356 C.ar    1  ZINC000474368324   -0.0700
     20 C20       -11.3772    0.7160   60.0806 C.ar    1  ZINC000474368324   -0.1000
     21 C21       -12.2187    1.4073   60.9326 C.ar    1  ZINC000474368324   -0.0900
     22 C22       -11.8381    1.6426   62.2401 C.ar    1  ZINC000474368324   -0.1000
     23 C23       -10.6147    1.1863   62.6974 C.ar    1  ZINC000474368324   -0.0300
     24 Cl24      -10.1362    1.4816   64.3397 Cl      1  ZINC000474368324   -0.0400
     25 C25        -9.7745    0.4895   61.8457 C.ar    1  ZINC000474368324   -0.0300
     26 Cl26       -8.2392   -0.0843   62.4180 Cl      1  ZINC000474368324   -0.0400
     27 C27        -7.4894    2.3358   56.0316 C.3     1  ZINC000474368324    0.1300
     28 C28        -6.9722    1.7976   54.6938 C.3     1  ZINC000474368324   -0.1200
     29 H29        -4.2060    2.9070   52.3528 H       1  ZINC000474368324    0.0800
     30 H30        -5.1526    1.5358   52.9791 H       1  ZINC000474368324    0.0700
     31 H31        -4.6713    1.5764   51.2659 H       1  ZINC000474368324    0.0700
     32 H32        -6.5931    3.5222   52.6215 H       1  ZINC000474368324    0.0700
     33 H33        -6.1117    3.5628   50.9084 H       1  ZINC000474368324    0.0700
     34 H34        -9.4601    3.1348   54.4509 H       1  ZINC000474368324    0.0700
     35 H35        -8.1890    3.6863   53.3335 H       1  ZINC000474368324    0.0600
     36 H36       -11.3895    1.9574   53.5132 H       1  ZINC000474368324    0.0400
     37 H37       -11.4143    3.7270   53.3226 H       1  ZINC000474368324    0.0400
     38 H38       -11.8114    2.6774   51.9410 H       1  ZINC000474368324    0.0900
     39 H39        -9.9319    0.3574   53.6670 H       1  ZINC000474368324    0.1000
     40 H40        -8.5629   -0.3976   54.5192 H       1  ZINC000474368324    0.0800
     41 H41       -10.2595    1.9404   55.5092 H       1  ZINC000474368324    0.0800
     42 H42       -10.2409    0.2839   56.1673 H       1  ZINC000474368324    0.0800
     43 H43       -10.1028   -0.1814   57.6924 H       1  ZINC000474368324    0.3900
     44 H44       -10.6645   -2.0668   59.2384 H       1  ZINC000474368324    0.0600
     45 H45        -8.9732   -2.5172   58.9142 H       1  ZINC000474368324    0.0700
     46 H46        -9.5528   -2.3841   60.5919 H       1  ZINC000474368324    0.0700
     47 H47       -11.6754    0.5329   59.0588 H       1  ZINC000474368324    0.1300
     48 H48       -13.1737    1.7639   60.5758 H       1  ZINC000474368324    0.1400
     49 H49       -12.4956    2.1830   62.9051 H       1  ZINC000474368324    0.1500
     50 H50        -7.9293    3.3220   55.8833 H       1  ZINC000474368324    0.0700
     51 H51        -6.6648    2.4042   56.7412 H       1  ZINC000474368324    0.1100
     52 H52        -6.4526    0.8536   54.8579 H       1  ZINC000474368324    0.0900
     53 H53        -6.2852    2.5196   54.2524 H       1  ZINC000474368324    0.0900
@<TRIPOS>BOND
     1     1     2    1
     2     1    29    1
     3     1    30    1
     4     1    31    1
     5     2     3    1
     6     2    32    1
     7     2    33    1
     8     3     4    1
     9     4     5    2
    10     4     6    1
    11     6    28    1
    12     6     7    1
    13     6    10    1
    14     7     8    1
    15     7    34    1
    16     7    35    1
    17     8     9    1
    18     9    36    1
    19     9    37    1
    20     9    38    1
    21    10    11    1
    22    10    39    1
    23    10    40    1
    24    11    12    1
    25    11    41    1
    26    11    42    1
    27    12    13   am
    28    12    27    1
    29    13    14    2
    30    13    15   am
    31    15    16    1
    32    15    43    1
    33    16    17    1
    34    16    18    1
    35    16    19    1
    36    18    44    1
    37    18    45    1
    38    18    46    1
    39    19    25   ar
    40    19    20   ar
    41    20    21   ar
    42    20    47    1
    43    21    22   ar
    44    21    48    1
    45    22    23   ar
    46    22    49    1
    47    23    24    1
    48    23    25   ar
    49    25    26    1
    50    27    28    1
    51    27    50    1
    52    27    51    1
    53    28    52    1
    54    28    53    1
@<TRIPOS>SUBSTRUCTURE
     1 ZINC000474368324        1 TEMP              0 ****  ****    0 ROOT


##########                                Name:    ZINC000123469372
##########                DOCK_Rotatable_Bonds:                   7
##########                         Heavy_Atoms:                  25
##########                    Molecular_Weight:             341.382
##########                DOCK_Rotatable_Bonds:                   7
##########                       Formal_Charge:          -0.0300001
##########                     HBond_Acceptors:                   5
##########                        HBond_Donors:                   2
##########                         Heavy_Atoms:                  25
##########                          Grid_Score:          -28.125561
##########                     Grid_vdw_energy:          -27.672646
##########                      Grid_es_energy:           -0.452914
##########           Internal_energy_repulsive:            9.374518

@<TRIPOS>MOLECULE
ZINC000123469372
 45 47 1 0 0
SMALL
USER_CHARGES


@<TRIPOS>ATOM
      1 C1        -12.5644    0.6586   60.1241 C.3     1  ZINC000123469372   -0.1700
      2 C2        -11.0345    0.6362   60.1317 C.3     1  ZINC000123469372    0.1500
      3 H3        -10.6570    1.6500   60.2647 H       1  ZINC000123469372    0.0900
      4 C4        -10.5431   -0.2460   61.2811 C.3     1  ZINC000123469372   -0.1600
      5 C5         -9.1050    0.1356   61.6378 C.3     1  ZINC000123469372    0.1500
      6 H6         -8.8469    1.0755   61.1499 H       1  ZINC000123469372    0.1100
      7 O7         -8.2156   -0.8913   61.1944 O.3     1  ZINC000123469372   -0.5500
      8 C8         -8.9834    0.2950   63.1315 C.ar    1  ZINC000123469372   -0.1200
      9 C9         -9.8174    1.1688   63.8035 C.ar    1  ZINC000123469372   -0.1100
     10 C10        -9.7058    1.3150   65.1737 C.ar    1  ZINC000123469372   -0.1200
     11 C11        -8.7605    0.5870   65.8717 C.ar    1  ZINC000123469372   -0.1200
     12 C12        -7.9271   -0.2875   65.1997 C.ar    1  ZINC000123469372   -0.1200
     13 C13        -8.0415   -0.4369   63.8302 C.ar    1  ZINC000123469372   -0.1100
     14 N14       -10.5478    0.0968   58.8595 N.am    1  ZINC000123469372   -0.7100
     15 C15       -10.3559    0.9184   57.8086 C.2     1  ZINC000123469372    0.5700
     16 O16       -10.5883    2.1084   57.9159 O.2     1  ZINC000123469372   -0.5400
     17 C17        -9.8684    0.3802   56.5392 C.2     1  ZINC000123469372   -0.2200
     18 C18        -9.0110    1.1034   55.7774 C.2     1  ZINC000123469372    0.0000
     19 C19        -8.5680    0.5227   54.5003 C.ar    1  ZINC000123469372   -0.1200
     20 C20        -7.4578    1.0213   53.8202 C.ar    1  ZINC000123469372   -0.0900
     21 C21        -7.0780    0.4451   52.6231 C.ar    1  ZINC000123469372    0.0700
     22 F22        -6.0031    0.9223   51.9582 F       1  ZINC000123469372   -0.1400
     23 C23        -7.7950   -0.6216   52.1012 C.ar    1  ZINC000123469372   -0.1100
     24 C24        -8.8977   -1.1225   52.7687 C.ar    1  ZINC000123469372   -0.1200
     25 C25        -9.2922   -0.5584   53.9682 C.ar    1  ZINC000123469372    0.1300
     26 O26       -10.3693   -1.0268   54.6462 O.3     1  ZINC000123469372   -0.3000
     27 C27       -10.3118   -0.9828   56.0751 C.3     1  ZINC000123469372    0.1100
     28 H28       -12.9265    1.0599   61.0707 H       1  ZINC000123469372    0.0700
     29 H29       -12.9145    1.2870   59.3053 H       1  ZINC000123469372    0.0600
     30 H30       -12.9420   -0.3552   59.9911 H       1  ZINC000123469372    0.0600
     31 H31       -11.1840   -0.1004   62.1506 H       1  ZINC000123469372    0.0900
     32 H32       -10.5764   -1.2919   60.9762 H       1  ZINC000123469372    0.0800
     33 H33        -7.2849   -0.7170   61.3904 H       1  ZINC000123469372    0.3700
     34 H34       -10.5559    1.7376   63.2581 H       1  ZINC000123469372    0.1200
     35 H35       -10.3570    1.9983   65.6985 H       1  ZINC000123469372    0.1200
     36 H36        -8.6728    0.7018   66.9419 H       1  ZINC000123469372    0.1200
     37 H37        -7.1883   -0.8561   65.7451 H       1  ZINC000123469372    0.1200
     38 H38        -7.3905   -1.1202   63.3052 H       1  ZINC000123469372    0.1200
     39 H39       -10.3638   -0.8517   58.7736 H       1  ZINC000123469372    0.4000
     40 H40        -8.6645    2.0749   56.0977 H       1  ZINC000123469372    0.1500
     41 H41        -6.8992    1.8519   54.2258 H       1  ZINC000123469372    0.1500
     42 H42        -7.4895   -1.0646   51.1649 H       1  ZINC000123469372    0.1500
     43 H43        -9.4499   -1.9528   52.3540 H       1  ZINC000123469372    0.1500
     44 H44        -9.6105   -1.7374   56.4309 H       1  ZINC000123469372    0.0800
     45 H45       -11.3007   -1.1938   56.4822 H       1  ZINC000123469372    0.1100
@<TRIPOS>BOND
     1     1     2    1
     2     1    28    1
     3     1    29    1
     4     1    30    1
     5     2     3    1
     6     2     4    1
     7     2    14    1
     8     4     5    1
     9     4    31    1
    10     4    32    1
    11     5     6    1
    12     5     7    1
    13     5     8    1
    14     7    33    1
    15     8    13   ar
    16     8     9   ar
    17     9    10   ar
    18     9    34    1
    19    10    11   ar
    20    10    35    1
    21    11    12   ar
    22    11    36    1
    23    12    13   ar
    24    12    37    1
    25    13    38    1
    26    14    15   am
    27    14    39    1
    28    15    16    2
    29    15    17    1
    30    17    27    1
    31    17    18    2
    32    18    19    1
    33    18    40    1
    34    19    25   ar
    35    19    20   ar
    36    20    21   ar
    37    20    41    1
    38    21    22    1
    39    21    23   ar
    40    23    24   ar
    41    23    42    1
    42    24    25   ar
    43    24    43    1
    44    25    26    1
    45    26    27    1
    46    27    44    1
    47    27    45    1
@<TRIPOS>SUBSTRUCTURE
     1 ZINC000123469372        1 TEMP              0 ****  ****    0 ROOT


##########                                Name:    ZINC000482139334
##########                DOCK_Rotatable_Bonds:                   4
##########                         Heavy_Atoms:                  26
##########                    Molecular_Weight:             348.376
##########                DOCK_Rotatable_Bonds:                   4
##########                       Formal_Charge:           0.0300002
##########                     HBond_Acceptors:                   5
##########                        HBond_Donors:                   1
##########                         Heavy_Atoms:                  26
##########                          Grid_Score:          -28.117908
##########                     Grid_vdw_energy:          -27.031664
##########                      Grid_es_energy:           -1.086244
##########           Internal_energy_repulsive:           13.450935

@<TRIPOS>MOLECULE
ZINC000482139334
 43 47 1 0 0
SMALL
USER_CHARGES


@<TRIPOS>ATOM
      1 O1         -9.6033    1.6149   59.1235 O.2     1  ZINC000482139334   -0.4800
      2 C2         -9.8073    0.4923   58.7125 C.2     1  ZINC000482139334    0.5500
      3 N3         -9.6292   -0.5663   59.5274 N.am    1  ZINC000482139334   -0.6100
      4 C4         -9.2073   -0.3724   60.8335 C.2     1  ZINC000482139334    0.4300
      5 N5         -9.8227    0.3534   61.7314 N.2     1  ZINC000482139334   -0.4800
      6 C6         -9.1109    0.3027   62.8878 C.2     1  ZINC000482139334    0.0400
      7 C7         -9.4530    0.9837   64.1607 C.ar    1  ZINC000482139334   -0.0500
      8 C8        -10.4461    1.9601   64.1864 C.ar    1  ZINC000482139334   -0.0800
      9 C9        -10.7609    2.5904   65.3736 C.ar    1  ZINC000482139334   -0.1300
     10 C10       -10.0925    2.2553   66.5371 C.ar    1  ZINC000482139334   -0.0800
     11 C11        -9.1048    1.2872   66.5196 C.ar    1  ZINC000482139334   -0.1600
     12 C12        -8.7849    0.6446   65.3384 C.ar    1  ZINC000482139334    0.1300
     13 F13        -7.8202   -0.3010   65.3215 F       1  ZINC000482139334   -0.1200
     14 C14        -8.0322   -0.4845   62.6641 C.2     1  ZINC000482139334   -0.0600
     15 O15        -8.1047   -0.9036   61.3836 O.3     1  ZINC000482139334   -0.1800
     16 C16       -10.2659    0.2814   57.2926 C.3     1  ZINC000482139334   -0.1800
     17 H17       -10.6889   -0.6996   57.0758 H       1  ZINC000482139334    0.1400
     18 C18       -10.8568    1.4854   56.5539 C.3     1  ZINC000482139334   -0.1200
     19 C19        -9.4707    0.9649   56.1871 C.3     1  ZINC000482139334   -0.0500
     20 C20        -8.2060    1.7807   56.5031 C.3     1  ZINC000482139334   -0.0700
     21 C21        -7.6247    2.0409   55.0955 C.3     1  ZINC000482139334   -0.0900
     22 C22        -8.1388    0.9046   54.2366 C.ar    1  ZINC000482139334   -0.0800
     23 C23        -7.7092    0.4482   53.0024 C.ar    1  ZINC000482139334   -0.1100
     24 C24        -8.3406   -0.6210   52.3972 C.ar    1  ZINC000482139334   -0.1100
     25 C25        -9.4057   -1.2382   53.0255 C.ar    1  ZINC000482139334   -0.1200
     26 C26        -9.8363   -0.7850   54.2572 C.ar    1  ZINC000482139334   -0.1000
     27 C27        -9.2051    0.2863   54.8666 C.ar    1  ZINC000482139334   -0.0700
     28 H28        -9.7962   -1.4640   59.2000 H       1  ZINC000482139334    0.4400
     29 H29       -10.9690    2.2238   63.2788 H       1  ZINC000482139334    0.1300
     30 H30       -11.5310    3.3475   65.3938 H       1  ZINC000482139334    0.1400
     31 H31       -10.3426    2.7519   67.4631 H       1  ZINC000482139334    0.1400
     32 H32        -8.5856    1.0300   67.4310 H       1  ZINC000482139334    0.1400
     33 H33        -7.2605   -0.7332   63.3776 H       1  ZINC000482139334    0.2200
     34 H34       -11.6679    1.2963   55.8506 H       1  ZINC000482139334    0.1200
     35 H35       -10.9137    2.4299   57.0950 H       1  ZINC000482139334    0.1100
     36 H36        -8.4621    2.7183   56.9964 H       1  ZINC000482139334    0.0800
     37 H37        -7.5105    1.1995   57.1087 H       1  ZINC000482139334    0.0900
     38 H38        -7.9803    2.9965   54.7105 H       1  ZINC000482139334    0.0800
     39 H39        -6.5354    2.0271   55.1280 H       1  ZINC000482139334    0.0800
     40 H40        -6.8772    0.9303   52.5106 H       1  ZINC000482139334    0.1200
     41 H41        -8.0025   -0.9739   51.4341 H       1  ZINC000482139334    0.1300
     42 H42        -9.9011   -2.0739   52.5537 H       1  ZINC000482139334    0.1300
     43 H43       -10.6690   -1.2679   54.7469 H       1  ZINC000482139334    0.1200
@<TRIPOS>BOND
     1     1     2    2
     2     2     3   am
     3     2    16    1
     4     3     4    1
     5     3    28    1
     6     4    15    1
     7     4     5    2
     8     5     6    1
     9     6     7    1
    10     6    14    2
    11     7    12   ar
    12     7     8   ar
    13     8     9   ar
    14     8    29    1
    15     9    10   ar
    16     9    30    1
    17    10    11   ar
    18    10    31    1
    19    11    12   ar
    20    11    32    1
    21    12    13    1
    22    14    15    1
    23    14    33    1
    24    16    17    1
    25    16    19    1
    26    16    18    1
    27    18    19    1
    28    18    34    1
    29    18    35    1
    30    19    27    1
    31    19    20    1
    32    20    21    1
    33    20    36    1
    34    20    37    1
    35    21    22    1
    36    21    38    1
    37    21    39    1
    38    22    27   ar
    39    22    23   ar
    40    23    24   ar
    41    23    40    1
    42    24    25   ar
    43    24    41    1
    44    25    26   ar
    45    25    42    1
    46    26    27   ar
    47    26    43    1
@<TRIPOS>SUBSTRUCTURE
     1 ZINC000482139334        1 TEMP              0 ****  ****    0 ROOT


##########                                Name:    ZINC001436455587
##########                DOCK_Rotatable_Bonds:                   9
##########                         Heavy_Atoms:                  21
##########                    Molecular_Weight:             378.693
##########                DOCK_Rotatable_Bonds:                   9
##########                       Formal_Charge:          -0.0200001
##########                     HBond_Acceptors:                   5
##########                        HBond_Donors:                   1
##########                         Heavy_Atoms:                  21
##########                          Grid_Score:          -28.103607
##########                     Grid_vdw_energy:          -27.590368
##########                      Grid_es_energy:           -0.513238
##########           Internal_energy_repulsive:           14.254066

@<TRIPOS>MOLECULE
ZINC001436455587
 42 42 1 0 0
SMALL
USER_CHARGES


@<TRIPOS>ATOM
      1 C1        -14.4455   -2.5080   60.5950 C.3     1  ZINC001436455587   -0.1500
      2 C2        -15.3960   -2.2309   59.4286 C.3     1  ZINC001436455587   -0.1300
      3 C3        -15.1268   -3.2313   58.3026 C.3     1  ZINC001436455587   -0.1400
      4 C4        -13.6880   -3.0680   57.8086 C.3     1  ZINC001436455587    0.0800
      5 H5        -12.9995   -3.4509   58.5620 H       1  ZINC001436455587    0.0700
      6 C6        -13.3991   -1.5862   57.5600 C.3     1  ZINC001436455587    0.1200
      7 N7        -12.1659   -1.4531   56.7805 N.am    1  ZINC001436455587   -0.7200
      8 C8        -11.8034   -0.2500   56.2930 C.2     1  ZINC001436455587    0.5200
      9 O9        -12.4973    0.7226   56.5009 O.2     1  ZINC001436455587   -0.5100
     10 C10       -10.5357   -0.1134   55.4896 C.3     1  ZINC001436455587    0.0600
     11 H11       -10.3584    0.9387   55.2666 H       1  ZINC001436455587    0.1000
     12 C12       -10.6740   -0.8955   54.1819 C.3     1  ZINC001436455587   -0.1800
     13 O13        -9.4370   -0.6327   56.2413 O.3     1  ZINC001436455587   -0.2700
     14 C14        -8.4433    0.2372   56.5633 C.ar    1  ZINC001436455587    0.1600
     15 C15        -7.6665    0.8043   55.5644 C.ar    1  ZINC001436455587   -0.2000
     16 C16        -6.6571    1.6888   55.8935 C.ar    1  ZINC001436455587   -0.0500
     17 C17        -6.4207    2.0087   57.2185 C.ar    1  ZINC001436455587   -0.0700
     18 Cl18       -5.1515    3.1197   57.6289 Cl      1  ZINC001436455587   -0.0600
     19 C19        -7.1948    1.4444   58.2173 C.ar    1  ZINC001436455587   -0.0400
     20 C20        -8.2087    0.5635   57.8921 C.ar    1  ZINC001436455587   -0.1200
     21 Br21       -9.2664   -0.2075   59.2569 Br      1  ZINC001436455587   -0.0100
     22 O22       -13.5163   -3.7974   56.5919 O.3     1  ZINC001436455587   -0.3800
     23 C23       -13.5311   -5.2167   56.7581 C.3     1  ZINC001436455587    0.0200
     24 H24       -14.6072   -3.5213   60.9628 H       1  ZINC001436455587    0.0500
     25 H25       -13.4146   -2.4048   60.2561 H       1  ZINC001436455587    0.0600
     26 H26       -14.6372   -1.7954   61.3972 H       1  ZINC001436455587    0.0600
     27 H27       -16.4268   -2.3343   59.7675 H       1  ZINC001436455587    0.0600
     28 H28       -15.2342   -1.2177   59.0608 H       1  ZINC001436455587    0.0700
     29 H29       -15.2698   -4.2454   58.6756 H       1  ZINC001436455587    0.0800
     30 H30       -15.8168   -3.0461   57.4795 H       1  ZINC001436455587    0.0800
     31 H31       -14.2276   -1.1422   57.0079 H       1  ZINC001436455587    0.0800
     32 H32       -13.2826   -1.0735   58.5148 H       1  ZINC001436455587    0.0800
     33 H33       -11.6103   -2.2309   56.6152 H       1  ZINC001436455587    0.4000
     34 H34        -9.7570   -0.7968   53.6008 H       1  ZINC001436455587    0.0800
     35 H35       -10.8513   -1.9477   54.4047 H       1  ZINC001436455587    0.0800
     36 H36       -11.5120   -0.4993   53.6084 H       1  ZINC001436455587    0.0800
     37 H37        -7.8500    0.5546   54.5299 H       1  ZINC001436455587    0.1500
     38 H38        -6.0520    2.1306   55.1157 H       1  ZINC001436455587    0.1400
     39 H39        -7.0089    1.6956   59.2511 H       1  ZINC001436455587    0.1500
     40 H40       -14.5165   -5.5321   57.1010 H       1  ZINC001436455587    0.0500
     41 H41       -13.3072   -5.6964   55.8052 H       1  ZINC001436455587    0.0900
     42 H42       -12.7809   -5.5041   57.4947 H       1  ZINC001436455587    0.0400
@<TRIPOS>BOND
     1     1     2    1
     2     1    24    1
     3     1    25    1
     4     1    26    1
     5     2     3    1
     6     2    27    1
     7     2    28    1
     8     3     4    1
     9     3    29    1
    10     3    30    1
    11     4     5    1
    12     4     6    1
    13     4    22    1
    14     6     7    1
    15     6    31    1
    16     6    32    1
    17     7     8   am
    18     7    33    1
    19     8     9    2
    20     8    10    1
    21    10    11    1
    22    10    12    1
    23    10    13    1
    24    12    34    1
    25    12    35    1
    26    12    36    1
    27    13    14    1
    28    14    20   ar
    29    14    15   ar
    30    15    16   ar
    31    15    37    1
    32    16    17   ar
    33    16    38    1
    34    17    18    1
    35    17    19   ar
    36    19    20   ar
    37    19    39    1
    38    20    21    1
    39    22    23    1
    40    23    40    1
    41    23    41    1
    42    23    42    1
@<TRIPOS>SUBSTRUCTURE
     1 ZINC001436455587        1 TEMP              0 ****  ****    0 ROOT


##########                                Name:    ZINC001135312623
##########                DOCK_Rotatable_Bonds:                   3
##########                         Heavy_Atoms:                  25
##########                    Molecular_Weight:             341.323
##########                DOCK_Rotatable_Bonds:                   3
##########                       Formal_Charge:        -1.78814e-07
##########                     HBond_Acceptors:                   8
##########                        HBond_Donors:                   2
##########                         Heavy_Atoms:                  25
##########                          Grid_Score:          -28.097338
##########                     Grid_vdw_energy:          -28.289804
##########                      Grid_es_energy:            0.192466
##########           Internal_energy_repulsive:            5.366706

@<TRIPOS>MOLECULE
ZINC001135312623
 40 42 1 0 0
SMALL
USER_CHARGES


@<TRIPOS>ATOM
      1 C1        -11.5506    1.0099   58.6273 C.3     1  ZINC001135312623   -0.1300
      2 C2        -12.3227   -0.2681   58.4234 C.ar    1  ZINC001135312623   -0.0600
      3 C3        -13.1187   -0.7639   59.4369 C.ar    1  ZINC001135312623   -0.1000
      4 C4        -13.8274   -1.9370   59.2508 C.ar    1  ZINC001135312623   -0.0300
      5 C5        -14.6951   -2.4752   60.3591 C.3     1  ZINC001135312623   -0.1300
      6 C6        -13.7419   -2.6166   58.0498 C.ar    1  ZINC001135312623   -0.0200
      7 N7        -14.5020   -3.8716   57.8548 N.pl3   1  ZINC001135312623    0.0200
      8 O8        -14.0245   -4.7764   57.1937 O.2     1  ZINC001135312623   -0.1500
      9 O9        -15.6048   -3.9998   58.3556 O.2     1  ZINC001135312623   -0.1500
     10 C10       -12.9482   -2.1256   57.0315 C.ar    1  ZINC001135312623   -0.0700
     11 C11       -12.2391   -0.9455   57.2135 C.ar    1  ZINC001135312623    0.1500
     12 N12       -11.4346   -0.4455   56.1846 N.am    1  ZINC001135312623   -0.6600
     13 C13       -10.4412   -1.2022   55.6777 C.2     1  ZINC001135312623    0.5600
     14 O14       -10.2444   -2.3197   56.1149 O.2     1  ZINC001135312623   -0.5000
     15 C15        -9.5924   -0.6747   54.5921 C.ar    1  ZINC001135312623   -0.1600
     16 C16        -9.3040   -1.4700   53.4799 C.ar    1  ZINC001135312623   -0.0400
     17 C17        -8.5108   -0.9771   52.4669 C.ar    1  ZINC001135312623   -0.1500
     18 C18        -7.9987    0.3112   52.5523 C.ar    1  ZINC001135312623    0.2000
     19 N19        -7.1909    0.8287   51.5395 N.am    1  ZINC001135312623   -0.6700
     20 C20        -6.4542    1.9334   51.7723 C.2     1  ZINC001135312623    0.6600
     21 O21        -5.7700    2.3972   50.8816 O.2     1  ZINC001135312623   -0.4900
     22 O22        -6.4673    2.5288   52.9784 O.3     1  ZINC001135312623   -0.3400
     23 C23        -7.7167    2.5024   53.7219 C.3     1  ZINC001135312623    0.1100
     24 C24        -8.2863    1.1071   53.6601 C.ar    1  ZINC001135312623   -0.1800
     25 C25        -9.0798    0.6245   54.6720 C.ar    1  ZINC001135312623    0.0000
     26 H26       -12.1627    1.8574   58.3192 H       1  ZINC001135312623    0.0900
     27 H27       -11.2907    1.1133   59.6809 H       1  ZINC001135312623    0.0800
     28 H28       -10.6396    0.9833   58.0294 H       1  ZINC001135312623    0.0700
     29 H29       -13.1877   -0.2353   60.3762 H       1  ZINC001135312623    0.1500
     30 H30       -15.6760   -2.0020   60.3149 H       1  ZINC001135312623    0.0900
     31 H31       -14.8060   -3.5532   60.2427 H       1  ZINC001135312623    0.0800
     32 H32       -14.2307   -2.2595   61.3214 H       1  ZINC001135312623    0.0800
     33 H33       -12.8818   -2.6570   56.0937 H       1  ZINC001135312623    0.1700
     34 H34       -11.5915    0.4459   55.8359 H       1  ZINC001135312623    0.4200
     35 H35        -9.7027   -2.4716   53.4143 H       1  ZINC001135312623    0.1400
     36 H36        -8.2873   -1.5918   51.6076 H       1  ZINC001135312623    0.1500
     37 H37        -7.1593    0.3955   50.6722 H       1  ZINC001135312623    0.4300
     38 H38        -7.5300    2.7756   54.7605 H       1  ZINC001135312623    0.1300
     39 H39        -8.4216    3.2053   53.2776 H       1  ZINC001135312623    0.1000
     40 H40        -9.3038    1.2442   55.5277 H       1  ZINC001135312623    0.1500
@<TRIPOS>BOND
     1     1     2    1
     2     1    26    1
     3     1    27    1
     4     1    28    1
     5     2    11   ar
     6     2     3   ar
     7     3     4   ar
     8     3    29    1
     9     4     5    1
    10     4     6   ar
    11     5    30    1
    12     5    31    1
    13     5    32    1
    14     6     7    1
    15     6    10   ar
    16     7     8    2
    17     7     9    2
    18    10    11   ar
    19    10    33    1
    20    11    12    1
    21    12    13   am
    22    12    34    1
    23    13    14    2
    24    13    15    1
    25    15    25   ar
    26    15    16   ar
    27    16    17   ar
    28    16    35    1
    29    17    18   ar
    30    17    36    1
    31    18    24   ar
    32    18    19    1
    33    19    20   am
    34    19    37    1
    35    20    21    2
    36    20    22    1
    37    22    23    1
    38    23    24    1
    39    23    38    1
    40    23    39    1
    41    24    25   ar
    42    25    40    1
@<TRIPOS>SUBSTRUCTURE
     1 ZINC001135312623        1 TEMP              0 ****  ****    0 ROOT


##########                                Name:    ZINC000840464592
##########                DOCK_Rotatable_Bonds:                  10
##########                         Heavy_Atoms:                  26
##########                    Molecular_Weight:             360.497
##########                DOCK_Rotatable_Bonds:                  10
##########                       Formal_Charge:          -0.0399996
##########                     HBond_Acceptors:                   5
##########                        HBond_Donors:                   1
##########                         Heavy_Atoms:                  26
##########                          Grid_Score:          -28.074947
##########                     Grid_vdw_energy:          -28.261845
##########                      Grid_es_energy:            0.186897
##########           Internal_energy_repulsive:           82.946640

@<TRIPOS>MOLECULE
ZINC000840464592
 58 59 1 0 0
SMALL
USER_CHARGES


@<TRIPOS>ATOM
      1 C1         -7.2098    0.9833   67.2699 C.3     1  ZINC000840464592   -0.1500
      2 C2         -7.2311   -0.1663   66.2605 C.3     1  ZINC000840464592   -0.1300
      3 C3         -8.6677   -0.4085   65.7936 C.3     1  ZINC000840464592   -0.1200
      4 C4         -9.0143    0.5782   64.6768 C.3     1  ZINC000840464592   -0.1200
      5 C5         -8.4084    0.0906   63.3593 C.3     1  ZINC000840464592   -0.1200
      6 C6         -8.7877    1.0567   62.2351 C.3     1  ZINC000840464592    0.0600
      7 O7         -8.5388    0.4381   60.9712 O.3     1  ZINC000840464592   -0.3600
      8 C8         -9.5459    0.6942   59.9903 C.3     1  ZINC000840464592    0.0800
      9 H9        -10.5310    0.5929   60.4460 H       1  ZINC000840464592    0.0800
     10 C10        -9.3791    2.1146   59.4467 C.3     1  ZINC000840464592   -0.1800
     11 C11        -9.4106   -0.2948   58.8613 C.2     1  ZINC000840464592    0.5200
     12 O12        -8.3585   -0.8712   58.6828 O.2     1  ZINC000840464592   -0.5000
     13 N13       -10.4587   -0.5389   58.0500 N.am    1  ZINC000840464592   -0.6000
     14 C14       -11.7239    0.1575   58.2687 C.3     1  ZINC000840464592    0.0900
     15 C15       -12.8446   -0.8155   58.6173 C.3     1  ZINC000840464592   -0.1600
     16 C16       -13.0903   -1.7769   57.4523 C.3     1  ZINC000840464592    0.0800
     17 N17       -12.2146   -2.9443   57.6015 N.am    1  ZINC000840464592   -0.7200
     18 C18       -10.8922   -2.8310   57.3995 C.2     1  ZINC000840464592    0.5100
     19 O19       -10.1619   -3.7836   57.5731 O.2     1  ZINC000840464592   -0.5200
     20 C20       -10.3206   -1.4978   56.9487 C.3     1  ZINC000840464592    0.1400
     21 H21        -9.2670   -1.6181   56.6968 H       1  ZINC000840464592    0.1300
     22 C22       -11.0877   -0.9987   55.7226 C.3     1  ZINC000840464592   -0.1000
     23 C23       -10.1103   -0.5828   54.6536 C.ar    1  ZINC000840464592   -0.0900
     24 C24        -9.6322    0.7138   54.6208 C.ar    1  ZINC000840464592   -0.1100
     25 C25        -8.7357    1.0954   53.6403 C.ar    1  ZINC000840464592   -0.1200
     26 C26        -8.3169    0.1802   52.6927 C.ar    1  ZINC000840464592   -0.1200
     27 C27        -8.7943   -1.1166   52.7260 C.ar    1  ZINC000840464592   -0.1200
     28 C28        -9.6875   -1.4993   53.7091 C.ar    1  ZINC000840464592   -0.1100
     29 H29        -7.8318    0.7257   68.1271 H       1  ZINC000840464592    0.0500
     30 H30        -6.1862    1.1558   67.6025 H       1  ZINC000840464592    0.0500
     31 H31        -7.5961    1.8873   66.7992 H       1  ZINC000840464592    0.0500
     32 H32        -6.6090    0.0914   65.4033 H       1  ZINC000840464592    0.0600
     33 H33        -6.8447   -1.0703   66.7312 H       1  ZINC000840464592    0.0600
     34 H34        -8.7613   -1.4280   65.4196 H       1  ZINC000840464592    0.0600
     35 H35        -9.3509   -0.2644   66.6306 H       1  ZINC000840464592    0.0600
     36 H36       -10.0975    0.6462   64.5753 H       1  ZINC000840464592    0.0600
     37 H37        -8.6099    1.5604   64.9212 H       1  ZINC000840464592    0.0600
     38 H38        -7.3231    0.0491   63.4518 H       1  ZINC000840464592    0.0700
     39 H39        -8.7918   -0.9033   63.1289 H       1  ZINC000840464592    0.0700
     40 H40        -9.8451    1.3089   62.3141 H       1  ZINC000840464592    0.0500
     41 H41        -8.1903    1.9646   62.3192 H       1  ZINC000840464592    0.0500
     42 H42       -10.1015    2.2854   58.6487 H       1  ZINC000840464592    0.0800
     43 H43        -9.5474    2.8328   60.2492 H       1  ZINC000840464592    0.0700
     44 H44        -8.3693    2.2374   59.0551 H       1  ZINC000840464592    0.0800
     45 H45       -11.6025    0.8685   59.0859 H       1  ZINC000840464592    0.1000
     46 H46       -11.9929    0.7006   57.3627 H       1  ZINC000840464592    0.0800
     47 H47       -12.5654   -1.3856   59.5034 H       1  ZINC000840464592    0.0800
     48 H48       -13.7575   -0.2564   58.8229 H       1  ZINC000840464592    0.1000
     49 H49       -14.1316   -2.0991   57.4589 H       1  ZINC000840464592    0.0900
     50 H50       -12.8692   -1.2732   56.5112 H       1  ZINC000840464592    0.1000
     51 H51       -12.5930   -3.8028   57.8477 H       1  ZINC000840464592    0.4000
     52 H52       -11.7240   -1.7977   55.3420 H       1  ZINC000840464592    0.0900
     53 H53       -11.7048   -0.1450   56.0027 H       1  ZINC000840464592    0.1000
     54 H54        -9.9594    1.4290   55.3612 H       1  ZINC000840464592    0.1200
     55 H55        -8.3627    2.1087   53.6144 H       1  ZINC000840464592    0.1200
     56 H56        -7.6170    0.4785   51.9262 H       1  ZINC000840464592    0.1200
     57 H57        -8.4674   -1.8315   51.9854 H       1  ZINC000840464592    0.1200
     58 H58       -10.0605   -2.5125   53.7351 H       1  ZINC000840464592    0.1200
@<TRIPOS>BOND
     1     1     2    1
     2     1    29    1
     3     1    30    1
     4     1    31    1
     5     2     3    1
     6     2    32    1
     7     2    33    1
     8     3     4    1
     9     3    34    1
    10     3    35    1
    11     4     5    1
    12     4    36    1
    13     4    37    1
    14     5     6    1
    15     5    38    1
    16     5    39    1
    17     6     7    1
    18     6    40    1
    19     6    41    1
    20     7     8    1
    21     8     9    1
    22     8    10    1
    23     8    11    1
    24    10    42    1
    25    10    43    1
    26    10    44    1
    27    11    12    2
    28    11    13   am
    29    13    20    1
    30    13    14    1
    31    14    15    1
    32    14    45    1
    33    14    46    1
    34    15    16    1
    35    15    47    1
    36    15    48    1
    37    16    17    1
    38    16    49    1
    39    16    50    1
    40    17    18   am
    41    17    51    1
    42    18    19    2
    43    18    20    1
    44    20    21    1
    45    20    22    1
    46    22    23    1
    47    22    52    1
    48    22    53    1
    49    23    28   ar
    50    23    24   ar
    51    24    25   ar
    52    24    54    1
    53    25    26   ar
    54    25    55    1
    55    26    27   ar
    56    26    56    1
    57    27    28   ar
    58    27    57    1
    59    28    58    1
@<TRIPOS>SUBSTRUCTURE
     1 ZINC000840464592        1 TEMP              0 ****  ****    0 ROOT


##########                                Name:    ZINC000004313955
##########                DOCK_Rotatable_Bonds:                   6
##########                         Heavy_Atoms:                  26
##########                    Molecular_Weight:             414.358
##########                DOCK_Rotatable_Bonds:                   6
##########                       Formal_Charge:           0.0299997
##########                     HBond_Acceptors:                   9
##########                        HBond_Donors:                   2
##########                         Heavy_Atoms:                  26
##########                          Grid_Score:          -28.065535
##########                     Grid_vdw_energy:          -27.821266
##########                      Grid_es_energy:           -0.244269
##########           Internal_energy_repulsive:           10.829480

@<TRIPOS>MOLECULE
ZINC000004313955
 47 49 1 0 0
SMALL
USER_CHARGES


@<TRIPOS>ATOM
      1 C1        -15.9485   -0.0384   60.8389 C.3     1  ZINC000004313955   -0.1500
      2 C2        -15.4197   -0.7938   59.6179 C.3     1  ZINC000004313955   -0.1100
      3 H3        -14.8010   -0.1270   59.0174 H       1  ZINC000004313955    0.0800
      4 C4        -16.5969   -1.2934   58.7771 C.3     1  ZINC000004313955   -0.1100
      5 C5        -16.0689   -2.0207   57.5384 C.3     1  ZINC000004313955   -0.1100
      6 H6        -16.9077   -2.3559   56.9282 H       1  ZINC000004313955    0.0900
      7 C7        -15.1920   -1.0688   56.7224 C.3     1  ZINC000004313955   -0.1500
      8 C8        -15.2396   -3.2318   57.9770 C.3     1  ZINC000004313955    0.1200
      9 N9        -14.1924   -2.7777   58.9023 N.am    1  ZINC000004313955   -0.6000
     10 C10       -12.8981   -3.0768   58.6747 C.2     1  ZINC000004313955    0.5400
     11 O11       -12.5887   -3.7279   57.6994 O.2     1  ZINC000004313955   -0.5300
     12 C12       -11.8356   -2.6024   59.6323 C.3     1  ZINC000004313955   -0.1400
     13 S13       -10.2029   -3.0495   58.9914 S.3     1  ZINC000004313955    0.0800
     14 C14        -9.7584   -1.5369   58.2046 C.2     1  ZINC000004313955    0.1100
     15 N15       -10.2725   -1.0547   57.0954 N.2     1  ZINC000004313955   -0.2800
     16 N16        -9.7193    0.0682   56.8042 N.2     1  ZINC000004313955   -0.2400
     17 C17        -8.8183    0.3720   57.7094 C.2     1  ZINC000004313955    0.2500
     18 C18        -7.9673    1.5805   57.7308 C.ar    1  ZINC000004313955   -0.0100
     19 C19        -7.0274    1.7934   56.7213 C.ar    1  ZINC000004313955   -0.0700
     20 C20        -6.2359    2.9230   56.7466 C.ar    1  ZINC000004313955   -0.1100
     21 C21        -6.3717    3.8449   57.7708 C.ar    1  ZINC000004313955   -0.0100
     22 Cl22       -5.3712    5.2634   57.7951 Cl      1  ZINC000004313955   -0.0500
     23 C23        -7.3025    3.6404   58.7754 C.ar    1  ZINC000004313955   -0.1100
     24 C24        -8.1044    2.5169   58.7584 C.ar    1  ZINC000004313955    0.0100
     25 Cl25       -9.2709    2.2614   60.0184 Cl      1  ZINC000004313955   -0.0100
     26 N26        -8.8194   -0.6440   58.6370 N.pl3   1  ZINC000004313955   -0.3000
     27 N27        -8.0386   -0.7431   59.7535 N.3     1  ZINC000004313955   -0.5800
     28 C28       -14.5824   -1.9904   60.0801 C.3     1  ZINC000004313955    0.1100
     29 H29       -15.1098    0.3162   61.4380 H       1  ZINC000004313955    0.0600
     30 H30       -16.5452    0.8121   60.5095 H       1  ZINC000004313955    0.0600
     31 H31       -16.5673   -0.7057   61.4390 H       1  ZINC000004313955    0.0600
     32 H32       -17.2019   -1.9790   59.3705 H       1  ZINC000004313955    0.0700
     33 H33       -17.2078   -0.4454   58.4676 H       1  ZINC000004313955    0.0700
     34 H34       -14.3528   -0.7348   57.3327 H       1  ZINC000004313955    0.0600
     35 H35       -14.8162   -1.5872   55.8404 H       1  ZINC000004313955    0.0600
     36 H36       -15.7822   -0.2063   56.4130 H       1  ZINC000004313955    0.0600
     37 H37       -15.8838   -3.9530   58.4797 H       1  ZINC000004313955    0.0700
     38 H38       -14.7800   -3.6953   57.1041 H       1  ZINC000004313955    0.1000
     39 H39       -11.8999   -1.5195   59.7388 H       1  ZINC000004313955    0.1300
     40 H40       -11.9858   -3.0727   60.6039 H       1  ZINC000004313955    0.1300
     41 H41        -6.9197    1.0751   55.9221 H       1  ZINC000004313955    0.1600
     42 H42        -5.5083    3.0885   55.9657 H       1  ZINC000004313955    0.1500
     43 H43        -7.4038    4.3629   59.5716 H       1  ZINC000004313955    0.1500
     44 H44        -7.2013   -0.1879   59.6596 H       1  ZINC000004313955    0.3700
     45 H45        -8.5549   -0.4818   60.5801 H       1  ZINC000004313955    0.3800
     46 H46       -13.6893   -1.6357   60.5944 H       1  ZINC000004313955    0.0900
     47 H47       -15.1731   -2.6101   60.7546 H       1  ZINC000004313955    0.0800
@<TRIPOS>BOND
     1     1     2    1
     2     1    29    1
     3     1    30    1
     4     1    31    1
     5     2     3    1
     6     2    28    1
     7     2     4    1
     8     4     5    1
     9     4    32    1
    10     4    33    1
    11     5     6    1
    12     5     7    1
    13     5     8    1
    14     7    34    1
    15     7    35    1
    16     7    36    1
    17     8     9    1
    18     8    37    1
    19     8    38    1
    20     9    10   am
    21     9    28    1
    22    10    11    2
    23    10    12    1
    24    12    13    1
    25    12    39    1
    26    12    40    1
    27    13    14    1
    28    14    26    1
    29    14    15    2
    30    15    16    1
    31    16    17    2
    32    17    18    1
    33    17    26    1
    34    18    24   ar
    35    18    19   ar
    36    19    20   ar
    37    19    41    1
    38    20    21   ar
    39    20    42    1
    40    21    22    1
    41    21    23   ar
    42    23    24   ar
    43    23    43    1
    44    24    25    1
    45    26    27    1
    46    27    44    1
    47    27    45    1
    48    28    46    1
    49    28    47    1
@<TRIPOS>SUBSTRUCTURE
     1 ZINC000004313955        1 TEMP              0 ****  ****    0 ROOT


##########                                Name:    ZINC000549659617
##########                DOCK_Rotatable_Bonds:                   9
##########                         Heavy_Atoms:                  28
##########                    Molecular_Weight:              418.48
##########                DOCK_Rotatable_Bonds:                   9
##########                       Formal_Charge:          0.00999956
##########                     HBond_Acceptors:                   9
##########                        HBond_Donors:                   1
##########                         Heavy_Atoms:                  28
##########                          Grid_Score:          -28.042593
##########                     Grid_vdw_energy:          -26.105013
##########                      Grid_es_energy:           -1.937580
##########           Internal_energy_repulsive:           23.191864

@<TRIPOS>MOLECULE
ZINC000549659617
 53 55 1 0 0
SMALL
USER_CHARGES


@<TRIPOS>ATOM
      1 C1         -9.9624   -1.5116   54.3749 C.3     1  ZINC000549659617   -0.1500
      2 C2         -9.3029   -0.3801   53.5838 C.3     1  ZINC000549659617   -0.1500
      3 C3         -9.7142    0.9669   54.1815 C.3     1  ZINC000549659617    0.1100
      4 N4         -8.5320    1.6422   54.7228 N.am    1  ZINC000549659617   -0.6100
      5 C5         -8.2218    1.5148   56.0282 C.2     1  ZINC000549659617    0.7100
      6 O6         -7.2400    2.0740   56.4771 O.2     1  ZINC000549659617   -0.5700
      7 N7         -9.0001    0.7676   56.8360 N.am    1  ZINC000549659617   -0.7400
      8 C8         -8.6619    0.6278   58.2545 C.3     1  ZINC000549659617    0.2300
      9 H9         -7.5789    0.5761   58.3666 H       1  ZINC000549659617    0.1100
     10 C10        -9.1896    1.8163   59.0162 C.ar    1  ZINC000549659617   -0.0900
     11 C11        -8.3547    2.5200   59.8637 C.ar    1  ZINC000549659617   -0.0800
     12 C12        -8.8388    3.6104   60.5625 C.ar    1  ZINC000549659617   -0.1100
     13 C13       -10.1574    3.9970   60.4131 C.ar    1  ZINC000549659617   -0.0700
     14 C14       -10.9922    3.2936   59.5647 C.ar    1  ZINC000549659617   -0.1800
     15 C15       -12.4299    3.7148   59.4023 C.3     1  ZINC000549659617    0.5100
     16 F16       -13.2196    3.0526   60.3484 F       1  ZINC000549659617   -0.1800
     17 F17       -12.5352    5.0969   59.5922 F       1  ZINC000549659617   -0.1700
     18 F18       -12.8697    3.3861   58.1156 F       1  ZINC000549659617   -0.1700
     19 C19       -10.5072    2.2062   58.8629 C.ar    1  ZINC000549659617   -0.0500
     20 C20        -9.2933   -0.6524   58.8055 C.3     1  ZINC000549659617   -0.1700
     21 C21        -8.3517   -1.7943   59.1929 C.3     1  ZINC000549659617   -0.1700
     22 C22        -9.0541   -0.9796   60.2809 C.3     1  ZINC000549659617   -0.1800
     23 C23        -7.6871    2.4558   53.8451 C.3     1  ZINC000549659617    0.1700
     24 H24        -7.5837    3.4609   54.2537 H       1  ZINC000549659617    0.1100
     25 C25        -8.3003    2.5205   52.4353 C.3     1  ZINC000549659617   -0.1400
     26 C26        -7.2437    3.0798   51.4618 C.3     1  ZINC000549659617   -0.5900
     27 S27        -5.6318    2.6073   52.1860 S.o2    1  ZINC000549659617    2.3900
     28 O28        -5.0123    1.6313   51.3595 O.2     1  ZINC000549659617   -0.9300
     29 O29        -4.9182    3.7802   52.5526 O.2     1  ZINC000549659617   -0.9400
     30 C30        -6.2913    1.7983   53.6931 C.3     1  ZINC000549659617   -0.6100
     31 H31        -9.6695   -2.4713   53.9491 H       1  ZINC000549659617    0.0600
     32 H32        -9.6413   -1.4626   55.4154 H       1  ZINC000549659617    0.0600
     33 H33       -11.0461   -1.4071   54.3238 H       1  ZINC000549659617    0.0600
     34 H34        -8.2192   -0.4847   53.6349 H       1  ZINC000549659617    0.0700
     35 H35        -9.6241   -0.4292   52.5433 H       1  ZINC000549659617    0.0700
     36 H36       -10.1633    1.5868   53.4056 H       1  ZINC000549659617    0.0800
     37 H37       -10.4374    0.8043   54.9807 H       1  ZINC000549659617    0.0900
     38 H38        -9.7841    0.3225   56.4781 H       1  ZINC000549659617    0.4000
     39 H39        -7.3245    2.2179   59.9803 H       1  ZINC000549659617    0.1300
     40 H40        -8.1867    4.1598   61.2252 H       1  ZINC000549659617    0.1400
     41 H41       -10.5356    4.8483   60.9595 H       1  ZINC000549659617    0.1400
     42 H42       -11.1592    1.6568   58.2002 H       1  ZINC000549659617    0.1400
     43 H43       -10.2611   -0.9196   58.3813 H       1  ZINC000549659617    0.1100
     44 H44        -8.6999   -2.8132   59.0233 H       1  ZINC000549659617    0.0900
     45 H45        -7.2824   -1.6337   59.0552 H       1  ZINC000549659617    0.0900
     46 H46        -8.4470   -0.2829   60.8589 H       1  ZINC000549659617    0.1200
     47 H47        -9.8645   -1.4624   60.8271 H       1  ZINC000549659617    0.0900
     48 H48        -8.5975    1.5208   52.1186 H       1  ZINC000549659617    0.1100
     49 H49        -9.1724    3.1743   52.4446 H       1  ZINC000549659617    0.0900
     50 H50        -7.3620    2.6305   50.4758 H       1  ZINC000549659617    0.1400
     51 H51        -7.3258    4.1647   51.3966 H       1  ZINC000549659617    0.1400
     52 H52        -5.6630    2.0176   54.5564 H       1  ZINC000549659617    0.1400
     53 H53        -6.3852    0.7224   53.5450 H       1  ZINC000549659617    0.1600
@<TRIPOS>BOND
     1     1     2    1
     2     1    31    1
     3     1    32    1
     4     1    33    1
     5     2     3    1
     6     2    34    1
     7     2    35    1
     8     3     4    1
     9     3    36    1
    10     3    37    1
    11     4     5   am
    12     4    23    1
    13     5     6    2
    14     5     7   am
    15     7     8    1
    16     7    38    1
    17     8     9    1
    18     8    10    1
    19     8    20    1
    20    10    19   ar
    21    10    11   ar
    22    11    12   ar
    23    11    39    1
    24    12    13   ar
    25    12    40    1
    26    13    14   ar
    27    13    41    1
    28    14    15    1
    29    14    19   ar
    30    15    16    1
    31    15    17    1
    32    15    18    1
    33    19    42    1
    34    20    22    1
    35    20    21    1
    36    20    43    1
    37    21    22    1
    38    21    44    1
    39    21    45    1
    40    22    46    1
    41    22    47    1
    42    23    24    1
    43    23    30    1
    44    23    25    1
    45    25    26    1
    46    25    48    1
    47    25    49    1
    48    26    27    1
    49    26    50    1
    50    26    51    1
    51    27    28    2
    52    27    29    2
    53    27    30    1
    54    30    52    1
    55    30    53    1
@<TRIPOS>SUBSTRUCTURE
     1 ZINC000549659617        1 TEMP              0 ****  ****    0 ROOT


##########                                Name:    ZINC000963156778
##########                DOCK_Rotatable_Bonds:                   6
##########                         Heavy_Atoms:                  24
##########                    Molecular_Weight:             349.414
##########                DOCK_Rotatable_Bonds:                   6
##########                       Formal_Charge:         -0.00999984
##########                     HBond_Acceptors:                   9
##########                        HBond_Donors:                   2
##########                         Heavy_Atoms:                  24
##########                          Grid_Score:          -28.030991
##########                     Grid_vdw_energy:          -27.657579
##########                      Grid_es_energy:           -0.373412
##########           Internal_energy_repulsive:            8.893195

@<TRIPOS>MOLECULE
ZINC000963156778
 43 46 1 0 0
SMALL
USER_CHARGES


@<TRIPOS>ATOM
      1 C1        -15.0206   -3.4723   57.8636 C.3     1  ZINC000963156778   -0.0800
      2 C2        -14.4769   -2.4404   58.8179 C.2     1  ZINC000963156778    0.0300
      3 C3        -13.9763   -1.2450   58.4281 C.2     1  ZINC000963156778   -0.2600
      4 C4        -13.8562   -0.7035   57.0269 C.3     1  ZINC000963156778    0.1300
      5 N5        -12.5533   -0.0443   56.8666 N.3     1  ZINC000963156778   -0.5000
      6 C6        -12.4614    0.6409   55.5518 C.3     1  ZINC000963156778    0.0600
      7 C7        -10.9464    0.7984   55.3002 C.3     1  ZINC000963156778   -0.1700
      8 H8        -10.5435    1.8105   55.2609 H       1  ZINC000963156778    0.1200
      9 C9        -10.2826   -0.3082   56.1454 C.3     1  ZINC000963156778   -0.1700
     10 H10        -9.3775   -0.1237   56.7240 H       1  ZINC000963156778    0.1200
     11 C11       -11.4524   -1.0413   56.8364 C.3     1  ZINC000963156778    0.0600
     12 C12       -10.2138   -0.3334   54.5769 C.3     1  ZINC000963156778    0.1200
     13 H13       -10.8178   -1.0787   54.0595 H       1  ZINC000963156778    0.1400
     14 N14        -8.9260   -0.0205   53.9525 N.am    1  ZINC000963156778   -0.7000
     15 C15        -8.6234   -0.5281   52.7411 C.2     1  ZINC000963156778    0.5100
     16 O16        -9.4179   -1.2428   52.1675 O.2     1  ZINC000963156778   -0.5000
     17 C17        -7.2980   -0.2077   52.0996 C.3     1  ZINC000963156778   -0.1300
     18 C18        -6.8330    1.1772   52.5541 C.3     1  ZINC000963156778   -0.1100
     19 H19        -6.6403    1.1829   53.6269 H       1  ZINC000963156778    0.1300
     20 C20        -7.8785    2.2491   52.1847 C.3     1  ZINC000963156778   -0.1600
     21 C21        -7.1274    3.1688   51.2468 C.2     1  ZINC000963156778    0.5300
     22 O22        -7.5862    4.1575   50.7160 O.2     1  ZINC000963156778   -0.4800
     23 N23        -5.8759    2.7179   51.0964 N.am    1  ZINC000963156778   -0.6900
     24 C24        -5.5986    1.6021   51.7891 C.2     1  ZINC000963156778    0.5200
     25 O25        -4.5312    1.0276   51.7969 O.2     1  ZINC000963156778   -0.4500
     26 S26       -13.5089   -0.4844   59.8997 S.3     1  ZINC000963156778    0.4500
     27 N27       -13.9526   -1.6582   60.8350 N.2     1  ZINC000963156778   -0.2900
     28 N28       -14.4409   -2.5992   60.1253 N.2     1  ZINC000963156778   -0.2400
     29 H29       -16.0860   -3.3000   57.7106 H       1  ZINC000963156778    0.0900
     30 H30       -14.4995   -3.3950   56.9093 H       1  ZINC000963156778    0.0800
     31 H31       -14.8697   -4.4681   58.2804 H       1  ZINC000963156778    0.0800
     32 H32       -13.9394   -1.5225   56.3124 H       1  ZINC000963156778    0.1000
     33 H33       -14.6531    0.0181   56.8467 H       1  ZINC000963156778    0.0700
     34 H34       -12.9147    0.0291   54.7718 H       1  ZINC000963156778    0.0600
     35 H35       -12.9427    1.6178   55.5977 H       1  ZINC000963156778    0.0800
     36 H36       -11.1739   -1.3309   57.8497 H       1  ZINC000963156778    0.1000
     37 H37       -11.7477   -1.9163   56.2575 H       1  ZINC000963156778    0.0500
     38 H38        -8.2911    0.5519   54.4108 H       1  ZINC000963156778    0.4000
     39 H39        -6.5610   -0.9539   52.3961 H       1  ZINC000963156778    0.1000
     40 H40        -7.4078   -0.2164   51.0151 H       1  ZINC000963156778    0.1200
     41 H41        -8.7299    1.7957   51.6771 H       1  ZINC000963156778    0.1200
     42 H42        -8.2040    2.7899   53.0734 H       1  ZINC000963156778    0.1300
     43 H43        -5.2220    3.1618   50.5340 H       1  ZINC000963156778    0.4200
@<TRIPOS>BOND
     1     1     2    1
     2     1    29    1
     3     1    30    1
     4     1    31    1
     5     2    28    1
     6     2     3    2
     7     3     4    1
     8     3    26    1
     9     4     5    1
    10     4    32    1
    11     4    33    1
    12     5    11    1
    13     5     6    1
    14     6     7    1
    15     6    34    1
    16     6    35    1
    17     7     8    1
    18     7    12    1
    19     7     9    1
    20     9    10    1
    21     9    11    1
    22     9    12    1
    23    11    36    1
    24    11    37    1
    25    12    13    1
    26    12    14    1
    27    14    15   am
    28    14    38    1
    29    15    16    2
    30    15    17    1
    31    17    18    1
    32    17    39    1
    33    17    40    1
    34    18    19    1
    35    18    24    1
    36    18    20    1
    37    20    21    1
    38    20    41    1
    39    20    42    1
    40    21    22    2
    41    21    23   am
    42    23    24   am
    43    23    43    1
    44    24    25    2
    45    26    27    1
    46    27    28    2
@<TRIPOS>SUBSTRUCTURE
     1 ZINC000963156778        1 TEMP              0 ****  ****    0 ROOT


##########                                Name:    ZINC000132775118
##########                DOCK_Rotatable_Bonds:                   5
##########                         Heavy_Atoms:                  27
##########                    Molecular_Weight:             376.499
##########                DOCK_Rotatable_Bonds:                   5
##########                       Formal_Charge:        -4.76837e-07
##########                     HBond_Acceptors:                   7
##########                        HBond_Donors:                   1
##########                         Heavy_Atoms:                  27
##########                          Grid_Score:          -28.030523
##########                     Grid_vdw_energy:          -26.727070
##########                      Grid_es_energy:           -1.303454
##########           Internal_energy_repulsive:           24.327068

@<TRIPOS>MOLECULE
ZINC000132775118
 59 62 1 0 0
SMALL
USER_CHARGES


@<TRIPOS>ATOM
      1 O1        -12.1917    2.1678   54.0253 O.2     1  ZINC000132775118   -0.5200
      2 C2        -11.1423    2.4338   54.5721 C.2     1  ZINC000132775118    0.5200
      3 C3         -9.9703    2.9188   53.7584 C.3     1  ZINC000132775118    0.0300
      4 N4         -9.0103    1.8214   53.5801 N.3     1  ZINC000132775118   -0.5100
      5 C5         -9.6784    0.6144   53.0716 C.3     1  ZINC000132775118    0.0300
      6 C6         -8.6682   -0.4279   52.6871 C.2     1  ZINC000132775118    0.5300
      7 O7         -9.0491   -1.5677   52.5234 O.2     1  ZINC000132775118   -0.5500
      8 N8         -7.3667   -0.1598   52.5155 N.am    1  ZINC000132775118   -0.7200
      9 C9         -6.8143    1.1659   52.7575 C.3     1  ZINC000132775118    0.1500
     10 H10        -6.3806    1.1916   53.7572 H       1  ZINC000132775118    0.0800
     11 C11        -5.7328    1.5189   51.7388 C.3     1  ZINC000132775118   -0.1300
     12 C12        -5.1530    2.8933   52.0882 C.3     1  ZINC000132775118   -0.1200
     13 C13        -6.2595    3.9482   52.0655 C.3     1  ZINC000132775118   -0.1200
     14 C14        -7.3581    3.5764   53.0664 C.3     1  ZINC000132775118   -0.1200
     15 C15        -7.9267    2.2130   52.6716 C.3     1  ZINC000132775118    0.0700
     16 H16        -8.3185    2.2647   51.6558 H       1  ZINC000132775118    0.0600
     17 N17       -11.0262    2.3009   55.9083 N.am    1  ZINC000132775118   -0.6200
     18 C18       -12.1581    1.8235   56.7143 C.3     1  ZINC000132775118    0.1100
     19 C19       -11.6955    0.6299   57.5559 C.3     1  ZINC000132775118   -0.1200
     20 C20       -10.4671    1.0336   58.3744 C.3     1  ZINC000132775118   -0.1000
     21 C21       -10.0295   -0.1279   59.2292 C.2     1  ZINC000132775118    0.5300
     22 O22       -10.1240   -1.2609   58.8071 O.2     1  ZINC000132775118   -0.5300
     23 N23        -9.5332    0.0926   60.4627 N.am    1  ZINC000132775118   -0.6200
     24 C24        -9.0651   -0.9429   61.3956 C.3     1  ZINC000132775118    0.1000
     25 C25        -8.6122   -0.2266   62.6854 C.3     1  ZINC000132775118   -0.1300
     26 C26        -9.3775    1.1216   62.6213 C.3     1  ZINC000132775118   -0.1300
     27 C27        -9.3637    1.4124   61.0974 C.3     1  ZINC000132775118    0.1000
     28 C28        -9.3296    1.4283   57.4296 C.3     1  ZINC000132775118   -0.1200
     29 C29        -9.7635    2.6252   56.5859 C.3     1  ZINC000132775118    0.1200
     30 H30       -10.3203    3.2575   52.7833 H       1  ZINC000132775118    0.0700
     31 H31        -9.4850    3.7454   54.2775 H       1  ZINC000132775118    0.1200
     32 H32       -10.3322    0.2126   53.8457 H       1  ZINC000132775118    0.1300
     33 H33       -10.2756    0.8755   52.1980 H       1  ZINC000132775118    0.0700
     34 H34        -6.7746   -0.8698   52.2216 H       1  ZINC000132775118    0.4000
     35 H35        -4.9417    0.7698   51.7717 H       1  ZINC000132775118    0.0800
     36 H36        -6.1680    1.5493   50.7400 H       1  ZINC000132775118    0.0700
     37 H37        -4.7087    2.8565   53.0829 H       1  ZINC000132775118    0.0700
     38 H38        -4.3858    3.1580   51.3605 H       1  ZINC000132775118    0.0700
     39 H39        -5.8401    4.9182   52.3324 H       1  ZINC000132775118    0.0700
     40 H40        -6.6860    4.0035   51.0639 H       1  ZINC000132775118    0.0600
     41 H41        -6.9369    3.5305   54.0706 H       1  ZINC000132775118    0.0800
     42 H42        -8.1498    4.3250   53.0343 H       1  ZINC000132775118    0.0700
     43 H43       -12.5017    2.6226   57.3713 H       1  ZINC000132775118    0.0800
     44 H44       -12.9703    1.5139   56.0565 H       1  ZINC000132775118    0.0900
     45 H45       -12.4975    0.3267   58.2288 H       1  ZINC000132775118    0.0800
     46 H46       -11.4379   -0.2005   56.8986 H       1  ZINC000132775118    0.0800
     47 H47       -10.7185    1.8803   59.0132 H       1  ZINC000132775118    0.0900
     48 H48        -9.8778   -1.6335   61.6209 H       1  ZINC000132775118    0.0700
     49 H49        -8.2263   -1.4842   60.9582 H       1  ZINC000132775118    0.0700
     50 H50        -8.9074   -0.7961   63.5666 H       1  ZINC000132775118    0.0800
     51 H51        -7.5351   -0.0595   62.6758 H       1  ZINC000132775118    0.0800
     52 H52       -10.3964    1.0105   62.9920 H       1  ZINC000132775118    0.0800
     53 H53        -8.8461    1.8990   63.1703 H       1  ZINC000132775118    0.0900
     54 H54        -8.4141    1.8607   60.8054 H       1  ZINC000132775118    0.0700
     55 H55       -10.1922    2.0679   60.8290 H       1  ZINC000132775118    0.0800
     56 H56        -8.4476    1.6933   58.0128 H       1  ZINC000132775118    0.0800
     57 H57        -9.0942    0.5903   56.7735 H       1  ZINC000132775118    0.0800
     58 H58        -8.9959    2.8471   55.8445 H       1  ZINC000132775118    0.1000
     59 H59        -9.9133    3.4914   57.2303 H       1  ZINC000132775118    0.0700
@<TRIPOS>BOND
     1     1     2    2
     2     2     3    1
     3     2    17   am
     4     3     4    1
     5     3    30    1
     6     3    31    1
     7     4    15    1
     8     4     5    1
     9     5     6    1
    10     5    32    1
    11     5    33    1
    12     6     7    2
    13     6     8   am
    14     8     9    1
    15     8    34    1
    16     9    10    1
    17     9    15    1
    18     9    11    1
    19    11    12    1
    20    11    35    1
    21    11    36    1
    22    12    13    1
    23    12    37    1
    24    12    38    1
    25    13    14    1
    26    13    39    1
    27    13    40    1
    28    14    15    1
    29    14    41    1
    30    14    42    1
    31    15    16    1
    32    17    29    1
    33    17    18    1
    34    18    19    1
    35    18    43    1
    36    18    44    1
    37    19    20    1
    38    19    45    1
    39    19    46    1
    40    20    21    1
    41    20    28    1
    42    20    47    1
    43    21    22    2
    44    21    23   am
    45    23    27    1
    46    23    24    1
    47    24    25    1
    48    24    48    1
    49    24    49    1
    50    25    26    1
    51    25    50    1
    52    25    51    1
    53    26    27    1
    54    26    52    1
    55    26    53    1
    56    27    54    1
    57    27    55    1
    58    28    29    1
    59    28    56    1
    60    28    57    1
    61    29    58    1
    62    29    59    1
@<TRIPOS>SUBSTRUCTURE
     1 ZINC000132775118        1 TEMP              0 ****  ****    0 ROOT


##########                                Name:    ZINC000599228306
##########                DOCK_Rotatable_Bonds:                   8
##########                         Heavy_Atoms:                  25
##########                    Molecular_Weight:             379.382
##########                DOCK_Rotatable_Bonds:                   8
##########                       Formal_Charge:        -4.09782e-08
##########                     HBond_Acceptors:                  10
##########                        HBond_Donors:                   1
##########                         Heavy_Atoms:                  25
##########                          Grid_Score:          -28.023054
##########                     Grid_vdw_energy:          -28.273180
##########                      Grid_es_energy:            0.250126
##########           Internal_energy_repulsive:           21.223833

@<TRIPOS>MOLECULE
ZINC000599228306
 44 44 1 0 0
SMALL
USER_CHARGES


@<TRIPOS>ATOM
      1 C1         -5.9340    1.6099   52.0176 C.3     1  ZINC000599228306    0.0400
      2 O2         -6.9394    1.4364   53.0507 O.3     1  ZINC000599228306   -0.3500
      3 C3         -7.8424    0.4537   52.8665 C.2     1  ZINC000599228306    0.5100
      4 O4         -7.6599   -0.3859   52.0075 O.2     1  ZINC000599228306   -0.4800
      5 C5         -9.0533    0.3970   53.7081 C.ar    1  ZINC000599228306   -0.1500
      6 C6        -10.3175    0.3480   53.1163 C.ar    1  ZINC000599228306   -0.0100
      7 C7        -11.4462    0.2952   53.9101 C.ar    1  ZINC000599228306    0.0700
      8 F8        -12.6698    0.2477   53.3391 F       1  ZINC000599228306   -0.1200
      9 C9        -11.3273    0.2903   55.2912 C.ar    1  ZINC000599228306    0.0100
     10 C10       -10.0795    0.3386   55.8844 C.ar    1  ZINC000599228306   -0.7100
     11 S11        -9.9406    0.3313   57.6409 S.o2    1  ZINC000599228306    2.7000
     12 O12        -8.6059   -0.0570   57.9361 O.2     1  ZINC000599228306   -0.9200
     13 O13       -10.5137    1.5501   58.0939 O.2     1  ZINC000599228306   -0.9300
     14 N14       -10.9163   -0.8822   58.2047 N.am    1  ZINC000599228306   -1.1000
     15 C15       -10.6774   -2.2667   57.7897 C.3     1  ZINC000599228306    0.1600
     16 H16       -10.2720   -2.2778   56.7779 H       1  ZINC000599228306    0.1300
     17 C17        -9.6787   -2.9208   58.7465 C.3     1  ZINC000599228306   -0.1700
     18 C18       -11.9759   -3.0310   57.8191 C.2     1  ZINC000599228306    0.4700
     19 O19       -12.3625   -3.6034   56.8277 O.2     1  ZINC000599228306   -0.4900
     20 O20       -12.7030   -3.0758   58.9465 O.3     1  ZINC000599228306   -0.3400
     21 C21       -14.0860   -2.6430   58.8566 C.3     1  ZINC000599228306    0.1200
     22 C22       -14.9489   -3.7964   58.3411 C.3     1  ZINC000599228306   -0.1900
     23 C23       -14.5782   -2.2170   60.2412 C.3     1  ZINC000599228306   -0.1400
     24 C24       -14.1883   -1.4592   57.8925 C.3     1  ZINC000599228306   -0.1800
     25 C25        -8.9403    0.3864   55.1025 C.ar    1  ZINC000599228306    0.2500
     26 F26        -7.7215    0.4332   55.6836 F       1  ZINC000599228306   -0.0900
     27 H27        -5.2719    2.4320   52.2893 H       1  ZINC000599228306    0.1100
     28 H28        -5.3529    0.6930   51.9184 H       1  ZINC000599228306    0.0700
     29 H29        -6.4224    1.8348   51.0694 H       1  ZINC000599228306    0.0700
     30 H30       -10.4120    0.3517   52.0405 H       1  ZINC000599228306    0.1700
     31 H31       -12.2136    0.2489   55.9068 H       1  ZINC000599228306    0.1800
     32 H32       -11.6458   -0.6763   58.8099 H       1  ZINC000599228306    0.4300
     33 H33        -9.5010   -3.9510   58.4377 H       1  ZINC000599228306    0.0900
     34 H34        -8.7395   -2.3680   58.7252 H       1  ZINC000599228306    0.0700
     35 H35       -10.0841   -2.9096   59.7583 H       1  ZINC000599228306    0.0800
     36 H36       -14.8761   -4.6398   59.0278 H       1  ZINC000599228306    0.0600
     37 H37       -15.9872   -3.4715   58.2735 H       1  ZINC000599228306    0.0700
     38 H38       -14.5983   -4.0999   57.3546 H       1  ZINC000599228306    0.0800
     39 H39       -13.9635   -1.3953   60.6084 H       1  ZINC000599228306    0.0700
     40 H40       -15.6165   -1.8921   60.1737 H       1  ZINC000599228306    0.0800
     41 H41       -14.5054   -3.0604   60.9280 H       1  ZINC000599228306    0.0700
     42 H42       -13.8377   -1.7626   56.9061 H       1  ZINC000599228306    0.0800
     43 H43       -15.2266   -1.1343   57.8250 H       1  ZINC000599228306    0.0700
     44 H44       -13.5735   -0.6374   58.2598 H       1  ZINC000599228306    0.0600
@<TRIPOS>BOND
     1     1     2    1
     2     1    27    1
     3     1    28    1
     4     1    29    1
     5     2     3    1
     6     3     4    2
     7     3     5    1
     8     5    25   ar
     9     5     6   ar
    10     6     7   ar
    11     6    30    1
    12     7     8    1
    13     7     9   ar
    14     9    10   ar
    15     9    31    1
    16    10    11    1
    17    10    25   ar
    18    11    12    2
    19    11    13    2
    20    11    14   am
    21    14    15    1
    22    14    32    1
    23    15    16    1
    24    15    17    1
    25    15    18    1
    26    17    33    1
    27    17    34    1
    28    17    35    1
    29    18    19    2
    30    18    20    1
    31    20    21    1
    32    21    22    1
    33    21    23    1
    34    21    24    1
    35    22    36    1
    36    22    37    1
    37    22    38    1
    38    23    39    1
    39    23    40    1
    40    23    41    1
    41    24    42    1
    42    24    43    1
    43    24    44    1
    44    25    26    1
@<TRIPOS>SUBSTRUCTURE
     1 ZINC000599228306        1 TEMP              0 ****  ****    0 ROOT


##########                                Name:    ZINC000918875053
##########                DOCK_Rotatable_Bonds:                   6
##########                         Heavy_Atoms:                  26
##########                    Molecular_Weight:             359.357
##########                DOCK_Rotatable_Bonds:                   6
##########                       Formal_Charge:           0.0200003
##########                     HBond_Acceptors:                   8
##########                        HBond_Donors:                   0
##########                         Heavy_Atoms:                  26
##########                          Grid_Score:          -28.005056
##########                     Grid_vdw_energy:          -27.413618
##########                      Grid_es_energy:           -0.591438
##########           Internal_energy_repulsive:            7.000819

@<TRIPOS>MOLECULE
ZINC000918875053
 44 47 1 0 0
SMALL
USER_CHARGES


@<TRIPOS>ATOM
      1 C1         -8.3104   -1.3881   59.6800 C.3     1  ZINC000918875053   -0.1700
      2 C2         -9.5351   -0.8868   58.9119 C.3     1  ZINC000918875053    0.1900
      3 H3        -10.1706   -0.3062   59.5806 H       1  ZINC000918875053    0.1400
      4 O4         -9.1039   -0.0502   57.8062 O.3     1  ZINC000918875053   -0.3400
      5 C5        -10.0419    0.7020   57.2094 C.2     1  ZINC000918875053    0.4800
      6 O6        -11.0795    0.9397   57.7810 O.2     1  ZINC000918875053   -0.4900
      7 C7         -9.8008    1.2498   55.8264 C.3     1  ZINC000918875053   -0.0900
      8 H8        -10.4439    0.7580   55.0966 H       1  ZINC000918875053    0.1400
      9 C9        -10.0009    2.7828   55.7958 C.3     1  ZINC000918875053   -0.1400
     10 C10        -8.9356    3.2770   54.8421 C.2     1  ZINC000918875053    0.5300
     11 O11        -8.9211    4.3739   54.3247 O.2     1  ZINC000918875053   -0.5000
     12 N12        -8.0072    2.3238   54.6519 N.am    1  ZINC000918875053   -0.5800
     13 C13        -6.8912    2.4629   53.8173 C.ar    1  ZINC000918875053    0.1000
     14 C14        -5.7897    3.1910   54.2445 C.ar    1  ZINC000918875053   -0.0800
     15 C15        -4.6898    3.3263   53.4192 C.ar    1  ZINC000918875053   -0.1200
     16 C16        -4.6847    2.7379   52.1682 C.ar    1  ZINC000918875053   -0.0800
     17 C17        -5.7801    2.0113   51.7378 C.ar    1  ZINC000918875053   -0.1500
     18 C18        -6.8819    1.8669   52.5606 C.ar    1  ZINC000918875053    0.1100
     19 F19        -7.9517    1.1568   52.1406 F       1  ZINC000918875053   -0.1300
     20 C20        -8.3135    1.1174   55.4307 C.3     1  ZINC000918875053    0.1200
     21 C21       -10.3100   -2.0641   58.3786 C.2     1  ZINC000918875053    0.1800
     22 N22       -11.6148   -2.1913   58.3486 N.2     1  ZINC000918875053   -0.4600
     23 C23       -11.8488   -3.3929   57.7917 C.2     1  ZINC000918875053    0.2100
     24 C24       -13.1998   -4.0085   57.5336 C.3     1  ZINC000918875053   -0.0900
     25 C25       -14.3109   -3.7240   58.5464 C.3     1  ZINC000918875053   -0.1600
     26 C26       -14.3472   -3.0656   57.1658 C.3     1  ZINC000918875053   -0.1500
     27 N27       -10.6958   -3.9253   57.5165 N.2     1  ZINC000918875053   -0.3700
     28 O28        -9.7990   -3.1755   57.8406 O.3     1  ZINC000918875053    0.1000
     29 H29        -7.7498   -0.5366   60.0658 H       1  ZINC000918875053    0.0900
     30 H30        -8.6341   -2.0161   60.5099 H       1  ZINC000918875053    0.0900
     31 H31        -7.6748   -1.9687   59.0114 H       1  ZINC000918875053    0.0800
     32 H32       -10.9937    3.0306   55.4203 H       1  ZINC000918875053    0.1300
     33 H33        -9.8506    3.2071   56.7885 H       1  ZINC000918875053    0.1100
     34 H34        -5.7923    3.6519   55.2213 H       1  ZINC000918875053    0.1400
     35 H35        -3.8326    3.8930   53.7518 H       1  ZINC000918875053    0.1400
     36 H36        -3.8237    2.8462   51.5254 H       1  ZINC000918875053    0.1400
     37 H37        -5.7730    1.5529   50.7600 H       1  ZINC000918875053    0.1400
     38 H38        -7.6887    1.0756   56.3229 H       1  ZINC000918875053    0.1000
     39 H39        -8.1621    0.2265   54.8213 H       1  ZINC000918875053    0.1000
     40 H40       -13.1864   -4.9920   57.0639 H       1  ZINC000918875053    0.1400
     41 H41       -15.0285   -4.5204   58.7432 H       1  ZINC000918875053    0.1100
     42 H42       -14.0645   -3.0915   59.3993 H       1  ZINC000918875053    0.1000
     43 H43       -14.1247   -1.9999   57.1103 H       1  ZINC000918875053    0.1000
     44 H44       -15.0888   -3.4289   56.4543 H       1  ZINC000918875053    0.1100
@<TRIPOS>BOND
     1     1     2    1
     2     1    29    1
     3     1    30    1
     4     1    31    1
     5     2     3    1
     6     2     4    1
     7     2    21    1
     8     4     5    1
     9     5     6    2
    10     5     7    1
    11     7     8    1
    12     7    20    1
    13     7     9    1
    14     9    10    1
    15     9    32    1
    16     9    33    1
    17    10    11    2
    18    10    12   am
    19    12    13    1
    20    12    20    1
    21    13    18   ar
    22    13    14   ar
    23    14    15   ar
    24    14    34    1
    25    15    16   ar
    26    15    35    1
    27    16    17   ar
    28    16    36    1
    29    17    18   ar
    30    17    37    1
    31    18    19    1
    32    20    38    1
    33    20    39    1
    34    21    28    1
    35    21    22    2
    36    22    23    1
    37    23    24    1
    38    23    27    2
    39    24    26    1
    40    24    25    1
    41    24    40    1
    42    25    26    1
    43    25    41    1
    44    25    42    1
    45    26    43    1
    46    26    44    1
    47    27    28    1
@<TRIPOS>SUBSTRUCTURE
     1 ZINC000918875053        1 TEMP              0 ****  ****    0 ROOT


##########                                Name:    ZINC000469459940
##########                DOCK_Rotatable_Bonds:                   7
##########                         Heavy_Atoms:                  24
##########                    Molecular_Weight:             414.295
##########                DOCK_Rotatable_Bonds:                   7
##########                       Formal_Charge:          -0.0200002
##########                     HBond_Acceptors:                   6
##########                        HBond_Donors:                   1
##########                         Heavy_Atoms:                  24
##########                          Grid_Score:          -27.996275
##########                     Grid_vdw_energy:          -28.131187
##########                      Grid_es_energy:            0.134913
##########           Internal_energy_repulsive:            7.236239

@<TRIPOS>MOLECULE
ZINC000469459940
 41 42 1 0 0
SMALL
USER_CHARGES


@<TRIPOS>ATOM
      1 C1        -10.0178    4.5208   50.0404 C.3     1  ZINC000469459940   -0.1600
      2 C2         -8.6882    4.9408   50.6702 C.3     1  ZINC000469459940   -0.1200
      3 C3         -7.9278    3.6966   51.1335 C.3     1  ZINC000469459940   -0.1200
      4 C4         -6.5976    4.1165   51.7621 C.3     1  ZINC000469459940   -0.6000
      5 S5         -5.6946    2.6412   52.3085 S.o2    1  ZINC000469459940    2.4900
      6 O6         -5.3260    1.8407   51.1939 O.2     1  ZINC000469459940   -0.9300
      7 O7         -4.7476    2.9796   53.3125 O.2     1  ZINC000469459940   -0.9300
      8 C8         -6.9008    1.6764   53.1565 C.ar    1  ZINC000469459940   -0.6400
      9 C9         -7.0836    1.8436   54.5178 C.ar    1  ZINC000469459940   -0.0300
     10 C10        -8.0259    1.0912   55.1879 C.ar    1  ZINC000469459940   -0.0800
     11 C11        -8.7961    0.1598   54.4893 C.ar    1  ZINC000469459940   -0.0900
     12 C12        -9.8080   -0.6495   55.2006 C.2     1  ZINC000469459940    0.5600
     13 O13        -9.9796   -1.8135   54.8951 O.2     1  ZINC000469459940   -0.5000
     14 N14       -10.5406   -0.0968   56.1877 N.am    1  ZINC000469459940   -0.6700
     15 C15       -11.4982   -0.8628   56.8608 C.ar    1  ZINC000469459940    0.1900
     16 C16       -12.8011   -0.9228   56.3839 C.ar    1  ZINC000469459940   -0.1500
     17 C17       -13.7457   -1.6795   57.0497 C.ar    1  ZINC000469459940   -0.0400
     18 C18       -13.3959   -2.3777   58.1912 C.ar    1  ZINC000469459940   -0.1500
     19 Br19      -14.6922   -3.4124   59.0995 Br      1  ZINC000469459940   -0.0200
     20 C20       -12.0965   -2.3203   58.6703 C.ar    1  ZINC000469459940    0.1500
     21 F21       -11.7571   -3.0030   59.7855 F       1  ZINC000469459940   -0.1200
     22 C22       -11.1459   -1.5688   58.0036 C.ar    1  ZINC000469459940   -0.1500
     23 C23        -8.6069   -0.0035   53.1159 C.ar    1  ZINC000469459940   -0.1100
     24 C24        -7.6647    0.7590   52.4571 C.ar    1  ZINC000469459940   -0.0300
     25 H25        -9.8261    3.8726   49.1852 H       1  ZINC000469459940    0.0600
     26 H26       -10.6150    3.9832   50.7770 H       1  ZINC000469459940    0.0600
     27 H27       -10.5596    5.4071   49.7104 H       1  ZINC000469459940    0.0600
     28 H28        -8.0911    5.4783   49.9336 H       1  ZINC000469459940    0.0700
     29 H29        -8.8800    5.5888   51.5254 H       1  ZINC000469459940    0.0700
     30 H30        -8.5245    3.1595   51.8708 H       1  ZINC000469459940    0.0800
     31 H31        -7.7369    3.0480   50.2785 H       1  ZINC000469459940    0.0800
     32 H32        -6.0016    4.6552   51.0254 H       1  ZINC000469459940    0.1400
     33 H33        -6.7885    4.7635   52.6183 H       1  ZINC000469459940    0.1400
     34 H34        -6.4870    2.5645   55.0570 H       1  ZINC000469459940    0.1500
     35 H35        -8.1671    1.2221   56.2505 H       1  ZINC000469459940    0.1500
     36 H36       -10.4037    0.8320   56.4314 H       1  ZINC000469459940    0.4200
     37 H37       -13.0759   -0.3776   55.4931 H       1  ZINC000469459940    0.1500
     38 H38       -14.7589   -1.7259   56.6785 H       1  ZINC000469459940    0.1500
     39 H39       -10.1333   -1.5239   58.3764 H       1  ZINC000469459940    0.1600
     40 H40        -9.1993   -0.7226   52.5698 H       1  ZINC000469459940    0.1400
     41 H41        -7.5173    0.6336   51.3946 H       1  ZINC000469459940    0.1500
@<TRIPOS>BOND
     1     1     2    1
     2     1    25    1
     3     1    26    1
     4     1    27    1
     5     2     3    1
     6     2    28    1
     7     2    29    1
     8     3     4    1
     9     3    30    1
    10     3    31    1
    11     4     5    1
    12     4    32    1
    13     4    33    1
    14     5     6    2
    15     5     7    2
    16     5     8    1
    17     8    24   ar
    18     8     9   ar
    19     9    10   ar
    20     9    34    1
    21    10    11   ar
    22    10    35    1
    23    11    12    1
    24    11    23   ar
    25    12    13    2
    26    12    14   am
    27    14    15    1
    28    14    36    1
    29    15    22   ar
    30    15    16   ar
    31    16    17   ar
    32    16    37    1
    33    17    18   ar
    34    17    38    1
    35    18    19    1
    36    18    20   ar
    37    20    21    1
    38    20    22   ar
    39    22    39    1
    40    23    24   ar
    41    23    40    1
    42    24    41    1
@<TRIPOS>SUBSTRUCTURE
     1 ZINC000469459940        1 TEMP              0 ****  ****    0 ROOT


##########                                Name:    ZINC000533037883
##########                DOCK_Rotatable_Bonds:                   7
##########                         Heavy_Atoms:                  27
##########                    Molecular_Weight:             368.479
##########                DOCK_Rotatable_Bonds:                   7
##########                       Formal_Charge:          0.00999947
##########                     HBond_Acceptors:                   6
##########                        HBond_Donors:                   1
##########                         Heavy_Atoms:                  27
##########                          Grid_Score:          -27.989628
##########                     Grid_vdw_energy:          -27.923040
##########                      Grid_es_energy:           -0.066587
##########           Internal_energy_repulsive:           16.338680

@<TRIPOS>MOLECULE
ZINC000533037883
 55 58 1 0 0
SMALL
USER_CHARGES


@<TRIPOS>ATOM
      1 O1         -8.0353   -0.2410   59.8848 O.2     1  ZINC000533037883   -0.5900
      2 C2         -8.4285   -0.1734   58.7362 C.2     1  ZINC000533037883    0.7100
      3 N3         -9.0312   -1.2359   58.1666 N.am    1  ZINC000533037883   -0.7500
      4 C4         -9.2070   -2.4743   58.9293 C.3     1  ZINC000533037883    0.1400
      5 C5        -10.5563   -3.1034   58.5763 C.3     1  ZINC000533037883   -0.0500
      6 C6        -11.6690   -2.2029   59.0477 C.2     1  ZINC000533037883   -0.2300
      7 C7        -11.5834   -1.2820   60.0355 C.2     1  ZINC000533037883    0.0600
      8 N8        -12.7925   -0.6874   60.1495 N.pl3   1  ZINC000533037883   -0.3200
      9 C9        -13.1312    0.3264   61.0565 C.ar    1  ZINC000533037883    0.1600
     10 C10       -12.2573    0.6630   62.0816 C.ar    1  ZINC000533037883   -0.1400
     11 C11       -12.5938    1.6623   62.9737 C.ar    1  ZINC000533037883   -0.0900
     12 C12       -13.7997    2.3269   62.8471 C.ar    1  ZINC000533037883   -0.1300
     13 C13       -14.6720    1.9940   61.8271 C.ar    1  ZINC000533037883   -0.0900
     14 C14       -14.3384    0.9998   60.9282 C.ar    1  ZINC000533037883   -0.1200
     15 N15       -13.6466   -1.2634   59.2002 N.2     1  ZINC000533037883   -0.2900
     16 C16       -12.9712   -2.1674   58.5372 C.2     1  ZINC000533037883    0.0700
     17 N17        -8.2668    0.9658   58.0345 N.am    1  ZINC000533037883   -0.6300
     18 C18        -7.6117    2.1324   58.6417 C.3     1  ZINC000533037883    0.1100
     19 C19        -6.4641    2.5824   57.7321 C.3     1  ZINC000533037883   -0.1400
     20 C20        -7.0033    2.8281   56.3210 C.3     1  ZINC000533037883   -0.1100
     21 C21        -7.5820    1.5269   55.7605 C.3     1  ZINC000533037883   -0.0900
     22 H22        -6.8072    0.7604   55.7465 H       1  ZINC000533037883    0.0800
     23 C23        -8.0903    1.7654   54.3372 C.3     1  ZINC000533037883   -0.1200
     24 H24        -8.8482    2.5486   54.3240 H       1  ZINC000533037883    0.0900
     25 C25        -6.9164    2.1159   53.3827 C.3     1  ZINC000533037883   -0.1500
     26 C26        -7.4745    1.6052   52.0305 C.3     1  ZINC000533037883    0.0500
     27 O27        -8.2107    0.4150   52.3540 O.3     1  ZINC000533037883   -0.3900
     28 C28        -8.6391    0.4594   53.7238 C.3     1  ZINC000533037883    0.0500
     29 C29        -8.7368    1.0629   56.6458 C.3     1  ZINC000533037883    0.1300
     30 H30        -9.3484   -1.1807   57.2516 H       1  ZINC000533037883    0.4000
     31 H31        -8.4057   -3.1703   58.6819 H       1  ZINC000533037883    0.0700
     32 H32        -9.1780   -2.2512   59.9959 H       1  ZINC000533037883    0.0700
     33 H33       -10.6258   -3.2319   57.4962 H       1  ZINC000533037883    0.0800
     34 H34       -10.6432   -4.0742   59.0641 H       1  ZINC000533037883    0.0800
     35 H35       -10.7069   -1.0618   60.6269 H       1  ZINC000533037883    0.1800
     36 H36       -11.3157    0.1437   62.1815 H       1  ZINC000533037883    0.1300
     37 H37       -11.9144    1.9245   63.7714 H       1  ZINC000533037883    0.1300
     38 H38       -14.0609    3.1075   63.5463 H       1  ZINC000533037883    0.1300
     39 H39       -15.6132    2.5148   61.7307 H       1  ZINC000533037883    0.1300
     40 H40       -15.0201    0.7404   60.1316 H       1  ZINC000533037883    0.1400
     41 H41       -13.3548   -2.7840   57.7379 H       1  ZINC000533037883    0.1900
     42 H42        -8.3331    2.9426   58.7478 H       1  ZINC000533037883    0.0700
     43 H43        -7.2170    1.8613   59.6209 H       1  ZINC000533037883    0.0800
     44 H44        -6.0312    3.5038   58.1216 H       1  ZINC000533037883    0.0800
     45 H45        -5.6999    1.8060   57.6995 H       1  ZINC000533037883    0.0700
     46 H46        -7.7849    3.5869   56.3579 H       1  ZINC000533037883    0.0700
     47 H47        -6.1935    3.1721   55.6777 H       1  ZINC000533037883    0.0700
     48 H48        -6.7409    3.1913   53.3543 H       1  ZINC000533037883    0.0800
     49 H49        -6.0097    1.5790   53.6614 H       1  ZINC000533037883    0.0800
     50 H50        -8.1356    2.3506   51.5883 H       1  ZINC000533037883    0.0600
     51 H51        -6.6573    1.3709   51.3482 H       1  ZINC000533037883    0.0900
     52 H52        -8.2375   -0.3975   54.2648 H       1  ZINC000533037883    0.0700
     53 H53        -9.7280    0.4507   53.7711 H       1  ZINC000533037883    0.0700
     54 H54        -9.0869    0.0874   56.3082 H       1  ZINC000533037883    0.1000
     55 H55        -9.5517    1.7847   56.5916 H       1  ZINC000533037883    0.0700
@<TRIPOS>BOND
     1     1     2    2
     2     2     3   am
     3     2    17   am
     4     3     4    1
     5     3    30    1
     6     4     5    1
     7     4    31    1
     8     4    32    1
     9     5     6    1
    10     5    33    1
    11     5    34    1
    12     6    16    1
    13     6     7    2
    14     7     8    1
    15     7    35    1
    16     8     9    1
    17     8    15    1
    18     9    14   ar
    19     9    10   ar
    20    10    11   ar
    21    10    36    1
    22    11    12   ar
    23    11    37    1
    24    12    13   ar
    25    12    38    1
    26    13    14   ar
    27    13    39    1
    28    14    40    1
    29    15    16    2
    30    16    41    1
    31    17    29    1
    32    17    18    1
    33    18    19    1
    34    18    42    1
    35    18    43    1
    36    19    20    1
    37    19    44    1
    38    19    45    1
    39    20    21    1
    40    20    46    1
    41    20    47    1
    42    21    22    1
    43    21    23    1
    44    21    29    1
    45    23    24    1
    46    23    28    1
    47    23    25    1
    48    25    26    1
    49    25    48    1
    50    25    49    1
    51    26    27    1
    52    26    50    1
    53    26    51    1
    54    27    28    1
    55    28    52    1
    56    28    53    1
    57    29    54    1
    58    29    55    1
@<TRIPOS>SUBSTRUCTURE
     1 ZINC000533037883        1 TEMP              0 ****  ****    0 ROOT


##########                                Name:    ZINC000811540126
##########                DOCK_Rotatable_Bonds:                   7
##########                         Heavy_Atoms:                  21
##########                    Molecular_Weight:             397.212
##########                DOCK_Rotatable_Bonds:                   7
##########                       Formal_Charge:           0.0100001
##########                     HBond_Acceptors:                   4
##########                        HBond_Donors:                   3
##########                         Heavy_Atoms:                  21
##########                          Grid_Score:          -27.986462
##########                     Grid_vdw_energy:          -26.708534
##########                      Grid_es_energy:           -1.277928
##########           Internal_energy_repulsive:            6.665390

@<TRIPOS>MOLECULE
ZINC000811540126
 37 38 1 0 0
SMALL
USER_CHARGES


@<TRIPOS>ATOM
      1 C1         -8.7994    0.0670   61.7329 C.3     1  ZINC000811540126   -0.1600
      2 C2         -8.7576    0.2632   60.2160 C.3     1  ZINC000811540126    0.1200
      3 H3         -7.8634   -0.2120   59.8127 H       1  ZINC000811540126    0.1000
      4 N4         -9.9471   -0.3425   59.6123 N.am    1  ZINC000811540126   -0.7200
      5 C5         -9.9353   -1.6431   59.2587 C.2     1  ZINC000811540126    0.5700
      6 O6         -8.9379   -2.3139   59.4421 O.2     1  ZINC000811540126   -0.5100
      7 C7        -11.1325   -2.2526   58.6491 C.ar    1  ZINC000811540126   -0.1600
      8 C8        -12.3548   -2.2274   59.3245 C.ar    1  ZINC000811540126   -0.0400
      9 C9        -13.4699   -2.7990   58.7492 C.ar    1  ZINC000811540126   -0.1200
     10 I10       -15.3025   -2.7604   59.7636 I       1  ZINC000811540126   -0.0300
     11 C11       -13.3838   -3.3983   57.5030 C.ar    1  ZINC000811540126   -0.0400
     12 C12       -12.1813   -3.4303   56.8249 C.ar    1  ZINC000811540126   -0.1500
     13 C13       -11.0512   -2.8553   57.3861 C.ar    1  ZINC000811540126    0.1900
     14 O14        -9.8693   -2.8857   56.7207 O.3     1  ZINC000811540126   -0.4700
     15 C15        -8.7289    1.7590   59.8960 C.3     1  ZINC000811540126    0.1400
     16 H16        -8.4528    2.3169   60.7908 H       1  ZINC000811540126    0.1300
     17 O17       -10.0221    2.1767   59.4542 O.3     1  ZINC000811540126   -0.5400
     18 C18        -7.7181    2.0208   58.8092 C.ar    1  ZINC000811540126   -0.1200
     19 C19        -7.7262    1.2547   57.6587 C.ar    1  ZINC000811540126   -0.1100
     20 C20        -6.7991    1.4948   56.6618 C.ar    1  ZINC000811540126   -0.1100
     21 C21        -5.8641    2.5014   56.8154 C.ar    1  ZINC000811540126   -0.1200
     22 C22        -5.8566    3.2681   57.9656 C.ar    1  ZINC000811540126   -0.1100
     23 C23        -6.7865    3.0308   58.9605 C.ar    1  ZINC000811540126   -0.1100
     24 H24        -8.8200   -0.9986   61.9610 H       1  ZINC000811540126    0.0600
     25 H25        -7.9145    0.5178   62.1820 H       1  ZINC000811540126    0.0700
     26 H26        -9.6937    0.5422   62.1362 H       1  ZINC000811540126    0.0700
     27 H27       -10.7432    0.1923   59.4672 H       1  ZINC000811540126    0.3900
     28 H28       -12.4262   -1.7613   60.2961 H       1  ZINC000811540126    0.1300
     29 H29       -14.2622   -3.8433   57.0595 H       1  ZINC000811540126    0.1400
     30 H30       -12.1220   -3.8996   55.8540 H       1  ZINC000811540126    0.1500
     31 H31        -9.0959   -2.7564   57.2866 H       1  ZINC000811540126    0.4000
     32 H32       -10.7491    1.6478   59.8102 H       1  ZINC000811540126    0.3700
     33 H33        -8.4567    0.4683   57.5387 H       1  ZINC000811540126    0.1100
     34 H34        -6.8050    0.8957   55.7632 H       1  ZINC000811540126    0.1200
     35 H35        -5.1393    2.6885   56.0369 H       1  ZINC000811540126    0.1200
     36 H36        -5.1259    4.0543   58.0857 H       1  ZINC000811540126    0.1300
     37 H37        -6.7806    3.6298   59.8592 H       1  ZINC000811540126    0.1200
@<TRIPOS>BOND
     1     1     2    1
     2     1    24    1
     3     1    25    1
     4     1    26    1
     5     2     3    1
     6     2     4    1
     7     2    15    1
     8     4     5   am
     9     4    27    1
    10     5     6    2
    11     5     7    1
    12     7    13   ar
    13     7     8   ar
    14     8     9   ar
    15     8    28    1
    16     9    10    1
    17     9    11   ar
    18    11    12   ar
    19    11    29    1
    20    12    13   ar
    21    12    30    1
    22    13    14    1
    23    14    31    1
    24    15    16    1
    25    15    17    1
    26    15    18    1
    27    17    32    1
    28    18    23   ar
    29    18    19   ar
    30    19    20   ar
    31    19    33    1
    32    20    21   ar
    33    20    34    1
    34    21    22   ar
    35    21    35    1
    36    22    23   ar
    37    22    36    1
    38    23    37    1
@<TRIPOS>SUBSTRUCTURE
     1 ZINC000811540126        1 TEMP              0 ****  ****    0 ROOT


##########                                Name:    ZINC000541568816
##########                DOCK_Rotatable_Bonds:                   8
##########                         Heavy_Atoms:                  25
##########                    Molecular_Weight:             411.339
##########                DOCK_Rotatable_Bonds:                   8
##########                       Formal_Charge:          -0.0100007
##########                     HBond_Acceptors:                   5
##########                        HBond_Donors:                   1
##########                         Heavy_Atoms:                  25
##########                          Grid_Score:          -27.982691
##########                     Grid_vdw_energy:          -28.135437
##########                      Grid_es_energy:            0.152746
##########           Internal_energy_repulsive:           17.568789

@<TRIPOS>MOLECULE
ZINC000541568816
 52 54 1 0 0
SMALL
USER_CHARGES


@<TRIPOS>ATOM
      1 C1        -14.9688   -3.4209   59.1516 C.3     1  ZINC000541568816   -0.1500
      2 C2        -14.0167   -2.4588   59.8649 C.3     1  ZINC000541568816    0.0600
      3 O3        -12.6715   -2.7455   59.4776 O.3     1  ZINC000541568816   -0.3700
      4 C4        -12.2436   -2.0502   58.3047 C.3     1  ZINC000541568816    0.0700
      5 H5        -12.9180   -1.2421   58.0216 H       1  ZINC000541568816    0.0900
      6 C6        -11.8712   -2.9807   57.1369 C.3     1  ZINC000541568816   -0.1700
      7 C7        -10.6885   -2.0358   56.8609 C.3     1  ZINC000541568816    0.1500
      8 H8         -9.7668   -2.5545   56.5971 H       1  ZINC000541568816    0.1100
      9 N9        -11.0114   -0.9442   55.9388 N.am    1  ZINC000541568816   -0.7200
     10 C10       -10.0349   -0.3630   55.2141 C.2     1  ZINC000541568816    0.7100
     11 O11        -8.8862   -0.7458   55.3246 O.2     1  ZINC000541568816   -0.5800
     12 N12       -10.3318    0.6423   54.3669 N.am    1  ZINC000541568816   -0.6300
     13 C13       -11.7162    1.1022   54.2325 C.3     1  ZINC000541568816    0.1000
     14 C14       -12.3314    0.5047   52.9654 C.3     1  ZINC000541568816   -0.1800
     15 C15        -9.2700    1.2751   53.5805 C.3     1  ZINC000541568816    0.1700
     16 C16        -8.3647    2.0575   54.4966 C.ar    1  ZINC000541568816   -0.0700
     17 C17        -8.8684    2.6112   55.6583 C.ar    1  ZINC000541568816   -0.1000
     18 C18        -8.0380    3.3291   56.4989 C.ar    1  ZINC000541568816   -0.1000
     19 C19        -6.7035    3.4929   56.1780 C.ar    1  ZINC000541568816   -0.1200
     20 C20        -6.1987    2.9394   55.0162 C.ar    1  ZINC000541568816   -0.0900
     21 C21        -7.0280    2.2168   54.1776 C.ar    1  ZINC000541568816   -0.0900
     22 Br22       -6.3382    1.4593   52.5882 Br      1  ZINC000541568816   -0.0500
     23 C23       -10.7691   -1.6360   58.3396 C.3     1  ZINC000541568816    0.0800
     24 C24        -9.8898   -2.4786   59.2798 C.3     1  ZINC000541568816   -0.1200
     25 C25        -8.7813   -1.4659   59.6817 C.3     1  ZINC000541568816   -0.1600
     26 C26        -9.5828   -0.1392   59.6949 C.3     1  ZINC000541568816    0.0500
     27 O27       -10.5249   -0.2580   58.6145 O.3     1  ZINC000541568816   -0.3600
     28 H28       -14.8676   -3.2994   58.0731 H       1  ZINC000541568816    0.0600
     29 H29       -14.7223   -4.4464   59.4265 H       1  ZINC000541568816    0.0600
     30 H30       -15.9950   -3.2022   59.4470 H       1  ZINC000541568816    0.0700
     31 H31       -14.2633   -1.4332   59.5900 H       1  ZINC000541568816    0.0500
     32 H32       -14.1181   -2.5802   60.9434 H       1  ZINC000541568816    0.0500
     33 H33       -11.5678   -3.9786   57.4539 H       1  ZINC000541568816    0.1000
     34 H34       -12.6126   -2.9967   56.3381 H       1  ZINC000541568816    0.0800
     35 H35       -11.9281   -0.6397   55.8498 H       1  ZINC000541568816    0.4000
     36 H36       -12.2913    0.7822   55.1013 H       1  ZINC000541568816    0.0900
     37 H37       -11.7328    2.1901   54.1662 H       1  ZINC000541568816    0.0700
     38 H38       -12.3147   -0.5832   53.0316 H       1  ZINC000541568816    0.0600
     39 H39       -13.3614    0.8469   52.8653 H       1  ZINC000541568816    0.0700
     40 H40       -11.7562    0.8246   52.0965 H       1  ZINC000541568816    0.0600
     41 H41        -8.6915    0.5072   53.0669 H       1  ZINC000541568816    0.1000
     42 H42        -9.7134    1.9478   52.8464 H       1  ZINC000541568816    0.1100
     43 H43        -9.9111    2.4835   55.9094 H       1  ZINC000541568816    0.1300
     44 H44        -8.4320    3.7623   57.4063 H       1  ZINC000541568816    0.1300
     45 H45        -6.0551    4.0537   56.8349 H       1  ZINC000541568816    0.1300
     46 H46        -5.1561    3.0677   54.7653 H       1  ZINC000541568816    0.1300
     47 H47       -10.4547   -2.8040   60.1533 H       1  ZINC000541568816    0.1000
     48 H48        -9.4641   -3.3326   58.7530 H       1  ZINC000541568816    0.0900
     49 H49        -8.3815   -1.6930   60.6699 H       1  ZINC000541568816    0.0900
     50 H50        -7.9868   -1.4371   58.9359 H       1  ZINC000541568816    0.0800
     51 H51       -10.1075   -0.0239   60.6433 H       1  ZINC000541568816    0.0600
     52 H52        -8.9169    0.7068   59.5248 H       1  ZINC000541568816    0.0900
@<TRIPOS>BOND
     1     1     2    1
     2     1    28    1
     3     1    29    1
     4     1    30    1
     5     2     3    1
     6     2    31    1
     7     2    32    1
     8     3     4    1
     9     4     5    1
    10     4    23    1
    11     4     6    1
    12     6     7    1
    13     6    33    1
    14     6    34    1
    15     7     8    1
    16     7     9    1
    17     7    23    1
    18     9    10   am
    19     9    35    1
    20    10    11    2
    21    10    12   am
    22    12    13    1
    23    12    15    1
    24    13    14    1
    25    13    36    1
    26    13    37    1
    27    14    38    1
    28    14    39    1
    29    14    40    1
    30    15    16    1
    31    15    41    1
    32    15    42    1
    33    16    21   ar
    34    16    17   ar
    35    17    18   ar
    36    17    43    1
    37    18    19   ar
    38    18    44    1
    39    19    20   ar
    40    19    45    1
    41    20    21   ar
    42    20    46    1
    43    21    22    1
    44    23    27    1
    45    23    24    1
    46    24    25    1
    47    24    47    1
    48    24    48    1
    49    25    26    1
    50    25    49    1
    51    25    50    1
    52    26    27    1
    53    26    51    1
    54    26    52    1
@<TRIPOS>SUBSTRUCTURE
     1 ZINC000541568816        1 TEMP              0 ****  ****    0 ROOT


##########                                Name:    ZINC000548281822
##########                DOCK_Rotatable_Bonds:                   6
##########                         Heavy_Atoms:                  24
##########                    Molecular_Weight:             332.406
##########                DOCK_Rotatable_Bonds:                   6
##########                       Formal_Charge:        -5.58794e-08
##########                     HBond_Acceptors:                   8
##########                        HBond_Donors:                   2
##########                         Heavy_Atoms:                  24
##########                          Grid_Score:          -27.915087
##########                     Grid_vdw_energy:          -28.505901
##########                      Grid_es_energy:            0.590814
##########           Internal_energy_repulsive:            6.515337

@<TRIPOS>MOLECULE
ZINC000548281822
 48 50 1 0 0
SMALL
USER_CHARGES


@<TRIPOS>ATOM
      1 C1         -6.9731    1.9873   58.0302 C.3     1  ZINC000548281822   -0.1700
      2 C2         -7.5714    1.3381   56.7806 C.3     1  ZINC000548281822    0.2600
      3 H3         -7.2193    0.3095   56.7016 H       1  ZINC000548281822    0.1400
      4 N4         -9.0331    1.3478   56.8774 N.am    1  ZINC000548281822   -0.7400
      5 C5         -9.6854    0.2607   57.3345 C.2     1  ZINC000548281822    0.7100
      6 O6         -9.0609   -0.7288   57.6650 O.2     1  ZINC000548281822   -0.5700
      7 N7        -11.0301    0.2702   57.4251 N.am    1  ZINC000548281822   -0.7400
      8 C8        -11.7391   -0.9110   57.9235 C.3     1  ZINC000548281822    0.1600
      9 H9        -11.1614   -1.3709   58.7252 H       1  ZINC000548281822    0.1000
     10 C10       -13.1132   -0.4953   58.4571 C.3     1  ZINC000548281822   -0.1400
     11 C11       -13.7575   -1.6783   59.1880 C.3     1  ZINC000548281822    0.1100
     12 N12       -13.6970   -2.8579   58.3217 N.pl3   1  ZINC000548281822   -0.4600
     13 C13       -14.4162   -4.0108   58.4294 C.2     1  ZINC000548281822   -0.0500
     14 C14       -14.0256   -4.8073   57.4138 C.2     1  ZINC000548281822   -0.0300
     15 N15       -13.0907   -4.1522   56.7065 N.2     1  ZINC000548281822   -0.4900
     16 C16       -12.8877   -2.9848   57.2434 C.2     1  ZINC000548281822    0.2100
     17 C17       -11.9227   -1.9182   56.7814 C.3     1  ZINC000548281822   -0.0500
     18 C18        -7.1436    2.1105   55.5594 C.2     1  ZINC000548281822    0.1700
     19 N19        -7.0341    1.6439   54.3388 N.2     1  ZINC000548281822   -0.4600
     20 C20        -6.6264    2.6833   53.5891 C.2     1  ZINC000548281822    0.1900
     21 C21        -6.3540    2.6615   52.1070 C.3     1  ZINC000548281822    0.0200
     22 C22        -7.1316    1.5123   51.4624 C.3     1  ZINC000548281822   -0.1400
     23 C23        -6.7977    3.9882   51.4874 C.3     1  ZINC000548281822   -0.1400
     24 C24        -4.8563    2.4620   51.8666 C.3     1  ZINC000548281822   -0.1400
     25 N25        -6.5107    3.7100   54.3772 N.2     1  ZINC000548281822   -0.3700
     26 O26        -6.8088    3.4035   55.5124 O.3     1  ZINC000548281822    0.0800
     27 H27        -7.3251    3.0159   58.1092 H       1  ZINC000548281822    0.0700
     28 H28        -7.2825    1.4285   58.9134 H       1  ZINC000548281822    0.0900
     29 H29        -5.8855    1.9800   57.9582 H       1  ZINC000548281822    0.0800
     30 H30        -9.5314    2.1368   56.6125 H       1  ZINC000548281822    0.4000
     31 H31       -11.5285    1.0591   57.1602 H       1  ZINC000548281822    0.4000
     32 H32       -12.9972    0.3392   59.1485 H       1  ZINC000548281822    0.1000
     33 H33       -13.7493   -0.1922   57.6254 H       1  ZINC000548281822    0.0800
     34 H34       -13.2151   -1.8757   60.1125 H       1  ZINC000548281822    0.0900
     35 H35       -14.7978   -1.4448   59.4150 H       1  ZINC000548281822    0.1000
     36 H36       -15.1551   -4.2418   59.1825 H       1  ZINC000548281822    0.1800
     37 H37       -14.3989   -5.7991   57.2059 H       1  ZINC000548281822    0.1700
     38 H38       -12.3273   -1.4109   55.9055 H       1  ZINC000548281822    0.0900
     39 H39       -10.9636   -2.3727   56.5334 H       1  ZINC000548281822    0.1000
     40 H40        -8.1987    1.6545   51.6338 H       1  ZINC000548281822    0.0600
     41 H41        -6.9347    1.4965   50.3905 H       1  ZINC000548281822    0.0700
     42 H42        -6.8155    0.5671   51.9040 H       1  ZINC000548281822    0.0700
     43 H43        -6.2437    4.8069   51.9465 H       1  ZINC000548281822    0.0600
     44 H44        -6.6007    3.9724   50.4155 H       1  ZINC000548281822    0.0700
     45 H45        -7.8647    4.1304   51.6586 H       1  ZINC000548281822    0.0600
     46 H46        -4.5401    1.5168   52.3081 H       1  ZINC000548281822    0.0700
     47 H47        -4.6593    2.4461   50.7947 H       1  ZINC000548281822    0.0700
     48 H48        -4.3023    3.2807   52.3258 H       1  ZINC000548281822    0.0600
@<TRIPOS>BOND
     1     1     2    1
     2     1    27    1
     3     1    28    1
     4     1    29    1
     5     2     3    1
     6     2     4    1
     7     2    18    1
     8     4     5   am
     9     4    30    1
    10     5     6    2
    11     5     7   am
    12     7     8    1
    13     7    31    1
    14     8     9    1
    15     8    17    1
    16     8    10    1
    17    10    11    1
    18    10    32    1
    19    10    33    1
    20    11    12    1
    21    11    34    1
    22    11    35    1
    23    12    16    1
    24    12    13    1
    25    13    14    2
    26    13    36    1
    27    14    15    1
    28    14    37    1
    29    15    16    2
    30    16    17    1
    31    17    38    1
    32    17    39    1
    33    18    26    1
    34    18    19    2
    35    19    20    1
    36    20    21    1
    37    20    25    2
    38    21    22    1
    39    21    23    1
    40    21    24    1
    41    22    40    1
    42    22    41    1
    43    22    42    1
    44    23    43    1
    45    23    44    1
    46    23    45    1
    47    24    46    1
    48    24    47    1
    49    24    48    1
    50    25    26    1
@<TRIPOS>SUBSTRUCTURE
     1 ZINC000548281822        1 TEMP              0 ****  ****    0 ROOT


##########                                Name:    ZINC000433533595
##########                DOCK_Rotatable_Bonds:                  10
##########                         Heavy_Atoms:                  24
##########                    Molecular_Weight:             397.312
##########                DOCK_Rotatable_Bonds:                  10
##########                       Formal_Charge:          0.00999916
##########                     HBond_Acceptors:                   5
##########                        HBond_Donors:                   1
##########                         Heavy_Atoms:                  24
##########                          Grid_Score:          -27.773022
##########                     Grid_vdw_energy:          -26.559040
##########                      Grid_es_energy:           -1.213981
##########           Internal_energy_repulsive:           18.225836

@<TRIPOS>MOLECULE
ZINC000433533595
 49 50 1 0 0
SMALL
USER_CHARGES


@<TRIPOS>ATOM
      1 C1         -6.1189    2.0714   52.1416 C.3     1  ZINC000433533595   -0.1500
      2 C2         -6.7509    3.0630   53.1204 C.3     1  ZINC000433533595   -0.1200
      3 C3         -7.9025    2.3828   53.8634 C.3     1  ZINC000433533595   -0.1300
      4 C4         -7.3685    1.1745   54.6352 C.3     1  ZINC000433533595    0.1000
      5 N5         -8.4561    0.5690   55.4078 N.am    1  ZINC000433533595   -0.5500
      6 C6         -8.3012    0.3445   56.7277 C.2     1  ZINC000433533595    0.5100
      7 O7         -7.2608    0.6439   57.2761 O.2     1  ZINC000433533595   -0.5100
      8 C8         -9.4098   -0.2727   57.5152 C.2     1  ZINC000433533595    0.5000
      9 O9         -9.3733   -1.4542   57.7914 O.2     1  ZINC000433533595   -0.4900
     10 N10       -10.4507    0.4820   57.9193 N.am    1  ZINC000433533595   -0.6300
     11 C11       -11.4890   -0.0960   58.6569 C.ar    1  ZINC000433533595    0.1200
     12 C12       -12.3242   -1.0333   58.0659 C.ar    1  ZINC000433533595   -0.0600
     13 C13       -13.3500   -1.6032   58.7976 C.ar    1  ZINC000433533595   -0.1100
     14 Br14      -14.4870   -2.8809   57.9909 Br      1  ZINC000433533595   -0.0400
     15 C15       -13.5459   -1.2412   60.1183 C.ar    1  ZINC000433533595   -0.0600
     16 C16       -12.7174   -0.3078   60.7136 C.ar    1  ZINC000433533595   -0.1900
     17 C17       -11.6841    0.2635   59.9896 C.ar    1  ZINC000433533595    0.1300
     18 O18       -10.8687    1.1815   60.5742 O.3     1  ZINC000433533595   -0.3100
     19 C19       -10.1036    0.7462   61.6998 C.3     1  ZINC000433533595    0.0800
     20 C20        -8.9965   -0.1990   61.2291 C.3     1  ZINC000433533595   -0.1500
     21 C21        -9.4785    1.9594   62.3915 C.3     1  ZINC000433533595   -0.1800
     22 C22        -9.7119    0.2076   54.7456 C.3     1  ZINC000433533595    0.0600
     23 C23        -9.6194   -0.4665   53.3753 C.3     1  ZINC000433533595   -0.1900
     24 C24       -10.0318   -1.2818   54.6025 C.3     1  ZINC000433533595   -0.1800
     25 H25        -6.8696    1.7410   51.4237 H       1  ZINC000433533595    0.0500
     26 H26        -5.2985    2.5561   51.6123 H       1  ZINC000433533595    0.0500
     27 H27        -5.7384    1.2106   52.6915 H       1  ZINC000433533595    0.0500
     28 H28        -6.0002    3.3934   53.8383 H       1  ZINC000433533595    0.0700
     29 H29        -7.1314    3.9239   52.5705 H       1  ZINC000433533595    0.0600
     30 H30        -8.3526    3.0893   54.5607 H       1  ZINC000433533595    0.0600
     31 H31        -8.6532    2.0525   53.1455 H       1  ZINC000433533595    0.0700
     32 H32        -6.9700    0.4420   53.9331 H       1  ZINC000433533595    0.1100
     33 H33        -6.5774    1.4965   55.3123 H       1  ZINC000433533595    0.0800
     34 H34       -10.4798    1.4261   57.6985 H       1  ZINC000433533595    0.4300
     35 H35       -12.1734   -1.3173   57.0349 H       1  ZINC000433533595    0.1600
     36 H36       -14.3485   -1.6887   60.6858 H       1  ZINC000433533595    0.1400
     37 H37       -12.8733   -0.0275   61.7449 H       1  ZINC000433533595    0.1500
     38 H38       -10.7541    0.2235   62.4010 H       1  ZINC000433533595    0.0800
     39 H39        -8.3461    0.3238   60.5280 H       1  ZINC000433533595    0.0700
     40 H40        -8.4129   -0.5311   62.0878 H       1  ZINC000433533595    0.0800
     41 H41        -9.4418   -1.0634   60.7364 H       1  ZINC000433533595    0.0700
     42 H42        -8.8281    2.4823   61.6902 H       1  ZINC000433533595    0.0700
     43 H43       -10.2673    2.6329   62.7267 H       1  ZINC000433533595    0.0600
     44 H44        -8.8949    1.6274   63.2500 H       1  ZINC000433533595    0.0800
     45 H45       -10.5465    0.8873   54.9172 H       1  ZINC000433533595    0.1400
     46 H46       -10.3931   -0.2300   52.6448 H       1  ZINC000433533595    0.0900
     47 H47        -8.6241   -0.6410   52.9664 H       1  ZINC000433533595    0.1400
     48 H48        -9.3079   -1.9926   55.0009 H       1  ZINC000433533595    0.1000
     49 H49       -11.0769   -1.5817   54.6794 H       1  ZINC000433533595    0.1000
@<TRIPOS>BOND
     1     1     2    1
     2     1    25    1
     3     1    26    1
     4     1    27    1
     5     2     3    1
     6     2    28    1
     7     2    29    1
     8     3     4    1
     9     3    30    1
    10     3    31    1
    11     4     5    1
    12     4    32    1
    13     4    33    1
    14     5     6   am
    15     5    22    1
    16     6     7    2
    17     6     8    1
    18     8     9    2
    19     8    10   am
    20    10    11    1
    21    10    34    1
    22    11    17   ar
    23    11    12   ar
    24    12    13   ar
    25    12    35    1
    26    13    14    1
    27    13    15   ar
    28    15    16   ar
    29    15    36    1
    30    16    17   ar
    31    16    37    1
    32    17    18    1
    33    18    19    1
    34    19    20    1
    35    19    21    1
    36    19    38    1
    37    20    39    1
    38    20    40    1
    39    20    41    1
    40    21    42    1
    41    21    43    1
    42    21    44    1
    43    22    24    1
    44    22    23    1
    45    22    45    1
    46    23    24    1
    47    23    46    1
    48    23    47    1
    49    24    48    1
    50    24    49    1
@<TRIPOS>SUBSTRUCTURE
     1 ZINC000433533595        1 TEMP              0 ****  ****    0 ROOT


##########                                Name:    ZINC001016082614
##########                DOCK_Rotatable_Bonds:                   6
##########                         Heavy_Atoms:                  25
##########                    Molecular_Weight:             348.402
##########                DOCK_Rotatable_Bonds:                   6
##########                       Formal_Charge:         -0.00999998
##########                     HBond_Acceptors:                   8
##########                        HBond_Donors:                   1
##########                         Heavy_Atoms:                  25
##########                          Grid_Score:          -27.766748
##########                     Grid_vdw_energy:          -26.864897
##########                      Grid_es_energy:           -0.901852
##########           Internal_energy_repulsive:           50.779606

@<TRIPOS>MOLECULE
ZINC001016082614
 49 51 1 0 0
SMALL
USER_CHARGES


@<TRIPOS>ATOM
      1 C1        -10.4849   -3.2808   57.2179 C.3     1  ZINC001016082614   -0.1700
      2 C2        -10.9943   -2.6085   55.9413 C.3     1  ZINC001016082614    0.1000
      3 N3        -11.7237   -1.3869   56.2905 N.am    1  ZINC001016082614   -0.6100
      4 C4        -12.9515   -1.4689   56.8405 C.2     1  ZINC001016082614    0.6100
      5 O5        -13.5572   -0.4543   57.1306 O.2     1  ZINC001016082614   -0.5100
      6 C6        -13.5575   -2.7817   57.0896 C.2     1  ZINC001016082614   -0.1100
      7 C7        -14.7242   -3.0270   57.7509 C.2     1  ZINC001016082614    0.0600
      8 N8        -14.9123   -4.3507   57.7546 N.2     1  ZINC001016082614   -0.4900
      9 C9        -13.9189   -4.9230   57.1290 C.2     1  ZINC001016082614    0.2000
     10 O10       -13.0696   -3.9833   56.7022 O.3     1  ZINC001016082614   -0.1900
     11 C11       -11.1186   -0.0761   56.0418 C.3     1  ZINC001016082614    0.1600
     12 H12       -11.7025    0.6787   56.5684 H       1  ZINC001016082614    0.0800
     13 C13        -9.7037   -0.0795   56.6126 C.3     1  ZINC001016082614   -0.1300
     14 C14        -9.3025    1.3321   56.9633 C.3     1  ZINC001016082614   -0.1300
     15 C15        -8.5826    1.9889   55.7716 C.3     1  ZINC001016082614    0.1000
     16 N16        -9.2183    1.6514   54.4829 N.am    1  ZINC001016082614   -0.6000
     17 C17        -8.4293    1.3535   53.4317 C.2     1  ZINC001016082614    0.5000
     18 O18        -8.9256    1.0726   52.3613 O.2     1  ZINC001016082614   -0.5200
     19 C19        -6.9303    1.3695   53.5862 C.3     1  ZINC001016082614    0.1100
     20 H20        -6.6314    0.7397   54.4241 H       1  ZINC001016082614    0.1100
     21 C21        -6.4302    2.8155   53.7990 C.3     1  ZINC001016082614   -0.1200
     22 C22        -6.0868    3.2461   52.3542 C.3     1  ZINC001016082614   -0.1600
     23 C23        -5.8095    1.9445   51.6350 C.2     1  ZINC001016082614    0.5300
     24 O24        -5.2387    1.8476   50.5693 O.2     1  ZINC001016082614   -0.5300
     25 N25        -6.2874    0.9087   52.3499 N.am    1  ZINC001016082614   -0.7100
     26 C26       -10.6525    1.6267   54.3020 C.3     1  ZINC001016082614    0.1300
     27 C27       -11.1863    0.2035   54.5993 C.3     1  ZINC001016082614   -0.1600
     28 H28        -9.9422   -4.1897   56.9581 H       1  ZINC001016082614    0.0700
     29 H29        -9.8192   -2.5988   57.7468 H       1  ZINC001016082614    0.0500
     30 H30       -11.3303   -3.5328   57.8580 H       1  ZINC001016082614    0.0600
     31 H31       -10.1488   -2.3565   55.3012 H       1  ZINC001016082614    0.0900
     32 H32       -11.6600   -3.2905   55.4124 H       1  ZINC001016082614    0.0900
     33 H33       -15.3767   -2.2877   58.1914 H       1  ZINC001016082614    0.2000
     34 H34       -13.8042   -5.9861   56.9767 H       1  ZINC001016082614    0.2600
     35 H35        -9.6747   -0.6991   57.5089 H       1  ZINC001016082614    0.0700
     36 H36        -9.0131   -0.4801   55.8705 H       1  ZINC001016082614    0.0800
     37 H37       -10.1930    1.9100   57.2108 H       1  ZINC001016082614    0.0700
     38 H38        -8.6343    1.3146   57.8243 H       1  ZINC001016082614    0.0800
     39 H39        -8.5983    3.0711   55.9013 H       1  ZINC001016082614    0.0700
     40 H40        -7.5464    1.6511   55.7543 H       1  ZINC001016082614    0.0800
     41 H41        -7.2175    3.4430   54.2166 H       1  ZINC001016082614    0.1000
     42 H42        -5.5432    2.8322   54.4323 H       1  ZINC001016082614    0.1000
     43 H43        -6.9325    3.7611   51.8985 H       1  ZINC001016082614    0.1100
     44 H44        -5.2019    3.8825   52.3460 H       1  ZINC001016082614    0.1100
     45 H45        -6.2158   -0.0208   52.0819 H       1  ZINC001016082614    0.4200
     46 H46       -11.1166    2.3400   54.9832 H       1  ZINC001016082614    0.0800
     47 H47       -10.8933    1.8978   53.2741 H       1  ZINC001016082614    0.0900
     48 H48       -10.5854   -0.5275   54.0583 H       1  ZINC001016082614    0.0900
     49 H49       -12.2224    0.1305   54.2689 H       1  ZINC001016082614    0.0700
@<TRIPOS>BOND
     1     1     2    1
     2     1    28    1
     3     1    29    1
     4     1    30    1
     5     2     3    1
     6     2    31    1
     7     2    32    1
     8     3     4   am
     9     3    11    1
    10     4     5    2
    11     4     6    1
    12     6    10    1
    13     6     7    2
    14     7     8    1
    15     7    33    1
    16     8     9    2
    17     9    10    1
    18     9    34    1
    19    11    12    1
    20    11    27    1
    21    11    13    1
    22    13    14    1
    23    13    35    1
    24    13    36    1
    25    14    15    1
    26    14    37    1
    27    14    38    1
    28    15    16    1
    29    15    39    1
    30    15    40    1
    31    16    17   am
    32    16    26    1
    33    17    18    2
    34    17    19    1
    35    19    20    1
    36    19    25    1
    37    19    21    1
    38    21    22    1
    39    21    41    1
    40    21    42    1
    41    22    23    1
    42    22    43    1
    43    22    44    1
    44    23    24    2
    45    23    25   am
    46    25    45    1
    47    26    27    1
    48    26    46    1
    49    26    47    1
    50    27    48    1
    51    27    49    1
@<TRIPOS>SUBSTRUCTURE
     1 ZINC001016082614        1 TEMP              0 ****  ****    0 ROOT


##########                                Name:    ZINC001344051361
##########                DOCK_Rotatable_Bonds:                   8
##########                         Heavy_Atoms:                  28
##########                    Molecular_Weight:             379.456
##########                DOCK_Rotatable_Bonds:                   8
##########                       Formal_Charge:          -0.0100006
##########                     HBond_Acceptors:                   5
##########                        HBond_Donors:                   0
##########                         Heavy_Atoms:                  28
##########                          Grid_Score:          -27.762335
##########                     Grid_vdw_energy:          -25.400406
##########                      Grid_es_energy:           -2.361928
##########           Internal_energy_repulsive:           33.115410

@<TRIPOS>MOLECULE
ZINC001344051361
 53 56 1 0 0
SMALL
USER_CHARGES


@<TRIPOS>ATOM
      1 O1         -8.0721    0.2816   57.9499 O.2     1  ZINC001344051361   -0.4800
      2 C2         -8.4706    0.1752   56.8142 C.2     1  ZINC001344051361    0.4800
      3 O3         -9.4297   -0.7165   56.5201 O.3     1  ZINC001344051361   -0.3500
      4 C4         -9.7696   -1.6826   57.5495 C.3     1  ZINC001344051361    0.0700
      5 C5        -11.1143   -1.3084   58.1762 C.3     1  ZINC001344051361   -0.1000
      6 H6        -11.5094   -0.4189   57.6854 H       1  ZINC001344051361    0.0900
      7 C7        -12.0987   -2.4672   58.0030 C.3     1  ZINC001344051361   -0.1200
      8 C8        -13.4538   -2.0814   58.6004 C.3     1  ZINC001344051361   -0.1300
      9 C9        -13.2876   -1.8080   60.0985 C.3     1  ZINC001344051361    0.0800
     10 N10       -12.2376   -0.7966   60.2810 N.am    1  ZINC001344051361   -0.6100
     11 C11       -12.4770    0.3204   60.9962 C.2     1  ZINC001344051361    0.5600
     12 O12       -13.5700    0.4985   61.4975 O.2     1  ZINC001344051361   -0.5300
     13 C13       -11.4103    1.3291   61.1711 C.ar    1  ZINC001344051361   -0.1300
     14 C14       -11.4117    2.4918   60.3989 C.ar    1  ZINC001344051361   -0.1000
     15 C15       -10.4136    3.4292   60.5674 C.ar    1  ZINC001344051361   -0.1300
     16 C16        -9.4126    3.2185   61.4990 C.ar    1  ZINC001344051361   -0.0900
     17 C17        -9.4051    2.0680   62.2674 C.ar    1  ZINC001344051361   -0.1300
     18 C18       -10.4008    1.1255   62.1132 C.ar    1  ZINC001344051361   -0.0600
     19 C19       -10.9214   -1.0255   59.6693 C.3     1  ZINC001344051361    0.1200
     20 C20        -7.8951    1.0482   55.7290 C.3     1  ZINC001344051361    0.0200
     21 O21        -6.5259    1.4206   55.8988 O.3     1  ZINC001344051361   -0.2500
     22 C22        -6.2402    2.2730   56.9179 C.ar    1  ZINC001344051361    0.1200
     23 C23        -7.2560    2.7376   57.7407 C.ar    1  ZINC001344051361   -0.2000
     24 C24        -6.9628    3.6036   58.7763 C.ar    1  ZINC001344051361   -0.0800
     25 C25        -5.6583    4.0077   58.9929 C.ar    1  ZINC001344051361   -0.1500
     26 C26        -4.6443    3.5463   58.1740 C.ar    1  ZINC001344051361   -0.0800
     27 C27        -4.9313    2.6753   57.1409 C.ar    1  ZINC001344051361   -0.1400
     28 C28        -8.3939    0.8208   54.3006 C.3     1  ZINC001344051361   -0.1700
     29 C29        -8.8284    2.0679   55.0732 C.3     1  ZINC001344051361   -0.1100
     30 H30        -9.8391   -2.6761   57.1067 H       1  ZINC001344051361    0.0800
     31 H31        -8.9973   -1.6809   58.3186 H       1  ZINC001344051361    0.0800
     32 H32       -12.2187   -2.6863   56.9419 H       1  ZINC001344051361    0.0700
     33 H33       -11.7144   -3.3497   58.5144 H       1  ZINC001344051361    0.0700
     34 H34       -13.8272   -1.1845   58.1061 H       1  ZINC001344051361    0.0700
     35 H35       -14.1609   -2.8981   58.4559 H       1  ZINC001344051361    0.0800
     36 H36       -14.2270   -1.4375   60.5087 H       1  ZINC001344051361    0.1100
     37 H37       -13.0014   -2.7279   60.6082 H       1  ZINC001344051361    0.0700
     38 H38       -12.1920    2.6570   59.6709 H       1  ZINC001344051361    0.1400
     39 H39       -10.4135    4.3293   59.9706 H       1  ZINC001344051361    0.1300
     40 H40        -8.6334    3.9554   61.6268 H       1  ZINC001344051361    0.1300
     41 H41        -8.6207    1.9095   62.9926 H       1  ZINC001344051361    0.1300
     42 H42       -10.3940    0.2279   62.7138 H       1  ZINC001344051361    0.1300
     43 H43       -10.4419   -1.8816   60.1438 H       1  ZINC001344051361    0.0700
     44 H44       -10.3001   -0.1389   59.7968 H       1  ZINC001344051361    0.1000
     45 H45        -8.2751    2.4228   57.5715 H       1  ZINC001344051361    0.1300
     46 H46        -7.7532    3.9656   59.4171 H       1  ZINC001344051361    0.1300
     47 H47        -5.4312    4.6850   59.8029 H       1  ZINC001344051361    0.1300
     48 H48        -3.6262    3.8637   58.3450 H       1  ZINC001344051361    0.1300
     49 H49        -4.1389    2.3153   56.5015 H       1  ZINC001344051361    0.1300
     50 H50        -7.6777    0.9552   53.4900 H       1  ZINC001344051361    0.1200
     51 H51        -9.1383    0.0398   54.1458 H       1  ZINC001344051361    0.1200
     52 H52        -9.8588    2.1073   55.4267 H       1  ZINC001344051361    0.1200
     53 H53        -8.3981    3.0226   54.7710 H       1  ZINC001344051361    0.1200
@<TRIPOS>BOND
     1     1     2    2
     2     2     3    1
     3     2    20    1
     4     3     4    1
     5     4     5    1
     6     4    30    1
     7     4    31    1
     8     5     6    1
     9     5    19    1
    10     5     7    1
    11     7     8    1
    12     7    32    1
    13     7    33    1
    14     8     9    1
    15     8    34    1
    16     8    35    1
    17     9    10    1
    18     9    36    1
    19     9    37    1
    20    10    11   am
    21    10    19    1
    22    11    12    2
    23    11    13    1
    24    13    18   ar
    25    13    14   ar
    26    14    15   ar
    27    14    38    1
    28    15    16   ar
    29    15    39    1
    30    16    17   ar
    31    16    40    1
    32    17    18   ar
    33    17    41    1
    34    18    42    1
    35    19    43    1
    36    19    44    1
    37    20    29    1
    38    20    21    1
    39    20    28    1
    40    21    22    1
    41    22    27   ar
    42    22    23   ar
    43    23    24   ar
    44    23    45    1
    45    24    25   ar
    46    24    46    1
    47    25    26   ar
    48    25    47    1
    49    26    27   ar
    50    26    48    1
    51    27    49    1
    52    28    29    1
    53    28    50    1
    54    28    51    1
    55    29    52    1
    56    29    53    1
@<TRIPOS>SUBSTRUCTURE
     1 ZINC001344051361        1 TEMP              0 ****  ****    0 ROOT


##########                                Name:    ZINC001356153960
##########                DOCK_Rotatable_Bonds:                   8
##########                         Heavy_Atoms:                  24
##########                    Molecular_Weight:             334.366
##########                DOCK_Rotatable_Bonds:                   8
##########                       Formal_Charge:           0.0100003
##########                     HBond_Acceptors:                   6
##########                        HBond_Donors:                   1
##########                         Heavy_Atoms:                  24
##########                          Grid_Score:          -27.749018
##########                     Grid_vdw_energy:          -27.389818
##########                      Grid_es_energy:           -0.359199
##########           Internal_energy_repulsive:           14.119982

@<TRIPOS>MOLECULE
ZINC001356153960
 44 46 1 0 0
SMALL
USER_CHARGES


@<TRIPOS>ATOM
      1 O1        -10.5294    1.4986   56.7291 O.2     1  ZINC001356153960   -0.5200
      2 C2         -9.8054    0.6795   56.2023 C.2     1  ZINC001356153960    0.5100
      3 N3         -8.8244    1.0831   55.3708 N.am    1  ZINC001356153960   -0.7000
      4 C4         -8.6284    2.5109   55.1078 C.3     1  ZINC001356153960    0.1300
      5 C5         -7.9071    2.6888   53.7702 C.3     1  ZINC001356153960   -0.0800
      6 H6         -7.7636    3.7476   53.5551 H       1  ZINC001356153960    0.0900
      7 C7         -6.5779    1.9705   53.7894 C.2     1  ZINC001356153960   -0.1700
      8 C8         -6.3910    1.2984   52.6863 C.2     1  ZINC001356153960   -0.1600
      9 C9         -7.5644    1.4563   51.7475 C.3     1  ZINC001356153960   -0.1000
     10 C10        -8.7065    2.0116   52.6330 C.3     1  ZINC001356153960   -0.1200
     11 C11       -10.0053   -0.7770   56.4705 C.2     1  ZINC001356153960    0.5100
     12 O12       -10.4060   -1.5071   55.5879 O.2     1  ZINC001356153960   -0.5100
     13 N13        -9.7407   -1.2797   57.6928 N.am    1  ZINC001356153960   -0.5500
     14 C14        -9.9367   -2.7075   57.9558 C.3     1  ZINC001356153960    0.1300
     15 C15       -11.4078   -2.9914   58.1165 C.ar    1  ZINC001356153960   -0.1600
     16 C16       -12.1099   -3.5993   57.0933 C.ar    1  ZINC001356153960   -0.0300
     17 C17       -13.4582   -3.8654   57.2416 C.ar    1  ZINC001356153960   -0.1700
     18 C18       -14.1094   -3.5128   58.4113 C.ar    1  ZINC001356153960    0.1400
     19 F19       -15.4283   -3.7683   58.5541 F       1  ZINC001356153960   -0.1300
     20 C20       -13.4083   -2.8985   59.4351 C.ar    1  ZINC001356153960   -0.2000
     21 C21       -12.0572   -2.6377   59.2877 C.ar    1  ZINC001356153960    0.1500
     22 F22       -11.3719   -2.0380   60.2856 F       1  ZINC001356153960   -0.1200
     23 C23        -9.2569   -0.3983   58.7583 C.3     1  ZINC001356153960    0.0700
     24 C24        -7.8922    0.2650   58.5613 C.3     1  ZINC001356153960   -0.1900
     25 C25        -8.0522   -0.8716   59.5742 C.3     1  ZINC001356153960   -0.1800
     26 H26        -8.2483    0.4283   54.9466 H       1  ZINC001356153960    0.4100
     27 H27        -9.5970    3.0093   55.0675 H       1  ZINC001356153960    0.0800
     28 H28        -8.0278    2.9482   55.9055 H       1  ZINC001356153960    0.0800
     29 H29        -5.8750    2.0081   54.6085 H       1  ZINC001356153960    0.1200
     30 H30        -5.5131    0.7068   52.4726 H       1  ZINC001356153960    0.1300
     31 H31        -7.3233    2.1636   50.9539 H       1  ZINC001356153960    0.0800
     32 H32        -7.8440    0.4918   51.3235 H       1  ZINC001356153960    0.0700
     33 H33        -9.3293    1.2047   53.0192 H       1  ZINC001356153960    0.0800
     34 H34        -9.3068    2.7407   52.0887 H       1  ZINC001356153960    0.0800
     35 H35        -9.5436   -3.2879   57.1212 H       1  ZINC001356153960    0.0900
     36 H36        -9.4113   -2.9839   58.8700 H       1  ZINC001356153960    0.1400
     37 H37       -11.6038   -3.8704   56.1785 H       1  ZINC001356153960    0.1600
     38 H38       -14.0049   -4.3443   56.4427 H       1  ZINC001356153960    0.1400
     39 H39       -13.9155   -2.6228   60.3478 H       1  ZINC001356153960    0.1500
     40 H40       -10.0241    0.1743   59.2795 H       1  ZINC001356153960    0.1400
     41 H41        -7.3544    0.0455   57.6390 H       1  ZINC001356153960    0.1400
     42 H42        -7.7616    1.2736   58.9533 H       1  ZINC001356153960    0.0900
     43 H43        -8.0269   -0.6101   60.6321 H       1  ZINC001356153960    0.1000
     44 H44        -7.6197   -1.8388   59.3182 H       1  ZINC001356153960    0.0900
@<TRIPOS>BOND
     1     1     2    2
     2     2     3   am
     3     2    11    1
     4     3     4    1
     5     3    26    1
     6     4     5    1
     7     4    27    1
     8     4    28    1
     9     5     6    1
    10     5    10    1
    11     5     7    1
    12     7     8    2
    13     7    29    1
    14     8     9    1
    15     8    30    1
    16     9    10    1
    17     9    31    1
    18     9    32    1
    19    10    33    1
    20    10    34    1
    21    11    12    2
    22    11    13   am
    23    13    14    1
    24    13    23    1
    25    14    15    1
    26    14    35    1
    27    14    36    1
    28    15    21   ar
    29    15    16   ar
    30    16    17   ar
    31    16    37    1
    32    17    18   ar
    33    17    38    1
    34    18    19    1
    35    18    20   ar
    36    20    21   ar
    37    20    39    1
    38    21    22    1
    39    23    25    1
    40    23    24    1
    41    23    40    1
    42    24    25    1
    43    24    41    1
    44    24    42    1
    45    25    43    1
    46    25    44    1
@<TRIPOS>SUBSTRUCTURE
     1 ZINC001356153960        1 TEMP              0 ****  ****    0 ROOT


##########                                Name:    ZINC001162683355
##########                DOCK_Rotatable_Bonds:                   5
##########                         Heavy_Atoms:                  25
##########                    Molecular_Weight:             336.437
##########                DOCK_Rotatable_Bonds:                   5
##########                       Formal_Charge:          -0.0100002
##########                     HBond_Acceptors:                   5
##########                        HBond_Donors:                   1
##########                         Heavy_Atoms:                  25
##########                          Grid_Score:          -27.727505
##########                     Grid_vdw_energy:          -27.211874
##########                      Grid_es_energy:           -0.515630
##########           Internal_energy_repulsive:           12.146207

@<TRIPOS>MOLECULE
ZINC001162683355
 49 52 1 0 0
SMALL
USER_CHARGES


@<TRIPOS>ATOM
      1 C1         -7.7208    3.9718   51.2751 C.3     1  ZINC001162683355    0.0200
      2 N2         -7.4549    2.8485   52.1837 N.3     1  ZINC001162683355   -0.5400
      3 C3         -6.9148    1.6943   51.4506 C.3     1  ZINC001162683355    0.0100
      4 C4         -6.5969    0.5708   52.4409 C.3     1  ZINC001162683355    0.0600
      5 O5         -7.7790    0.2409   53.1752 O.3     1  ZINC001162683355   -0.3800
      6 C6         -8.3316    1.3419   53.9017 C.3     1  ZINC001162683355    0.0800
      7 H7         -7.6059    1.6954   54.6344 H       1  ZINC001162683355    0.0700
      8 C8         -9.6053    0.8923   54.6201 C.3     1  ZINC001162683355    0.1500
      9 N9         -9.2512    0.0175   55.7406 N.pl3   1  ZINC001162683355   -0.7300
     10 C10        -8.8652    0.5683   56.9576 C.ar    1  ZINC001162683355    0.4300
     11 C11        -8.9425   -0.1958   58.1245 C.ar    1  ZINC001162683355   -0.0100
     12 C12        -8.5437    0.3924   59.3387 C.ar    1  ZINC001162683355   -0.0400
     13 C13        -8.0865    1.7170   59.3267 C.ar    1  ZINC001162683355   -0.1800
     14 C14        -8.0446    2.3885   58.1396 C.ar    1  ZINC001162683355    0.1000
     15 N15        -8.4252    1.8147   57.0083 N.ar    1  ZINC001162683355   -0.5400
     16 C16        -8.7320   -0.6283   60.3652 C.2     1  ZINC001162683355   -0.2200
     17 C17        -9.2155   -1.7212   59.7480 C.2     1  ZINC001162683355    0.0800
     18 N18        -9.3420   -1.4816   58.4094 N.pl3   1  ZINC001162683355   -0.4600
     19 C19        -9.8352   -2.4474   57.4244 C.3     1  ZINC001162683355    0.1500
     20 C20       -11.3379   -2.3629   57.3470 C.ar    1  ZINC001162683355   -0.1100
     21 C21       -11.9651   -1.1328   57.4127 C.ar    1  ZINC001162683355   -0.1000
     22 C22       -13.3433   -1.0549   57.3372 C.ar    1  ZINC001162683355   -0.1200
     23 C23       -14.0945   -2.2077   57.2053 C.ar    1  ZINC001162683355   -0.1100
     24 C24       -13.4675   -3.4382   57.1448 C.ar    1  ZINC001162683355   -0.1200
     25 C25       -12.0892   -3.5157   57.2158 C.ar    1  ZINC001162683355   -0.1000
     26 C26        -8.6669    2.4733   52.9262 C.3     1  ZINC001162683355    0.0300
     27 H27        -8.4977    3.6886   50.5650 H       1  ZINC001162683355    0.0300
     28 H28        -8.0529    4.8349   51.8519 H       1  ZINC001162683355    0.0700
     29 H29        -6.8090    4.2253   50.7342 H       1  ZINC001162683355    0.0700
     30 H30        -6.0040    1.9883   50.9290 H       1  ZINC001162683355    0.0900
     31 H31        -7.6522    1.3447   50.7279 H       1  ZINC001162683355    0.0500
     32 H32        -5.8206    0.9024   53.1305 H       1  ZINC001162683355    0.0600
     33 H33        -6.2495   -0.3074   51.8966 H       1  ZINC001162683355    0.1000
     34 H34       -10.2432    0.3492   53.9228 H       1  ZINC001162683355    0.0700
     35 H35       -10.1385    1.7658   54.9954 H       1  ZINC001162683355    0.0800
     36 H36        -9.2859   -0.9459   55.6335 H       1  ZINC001162683355    0.4000
     37 H37        -7.7724    2.1981   60.2412 H       1  ZINC001162683355    0.1300
     38 H38        -7.6931    3.4095   58.1220 H       1  ZINC001162683355    0.1500
     39 H39        -8.5265   -0.5241   61.4204 H       1  ZINC001162683355    0.1500
     40 H40        -9.4645   -2.6509   60.2379 H       1  ZINC001162683355    0.1700
     41 H41        -9.5429   -3.4538   57.7244 H       1  ZINC001162683355    0.0900
     42 H42        -9.4077   -2.2208   56.4478 H       1  ZINC001162683355    0.0900
     43 H43       -11.3785   -0.2324   57.5197 H       1  ZINC001162683355    0.1200
     44 H44       -13.8332   -0.0935   57.3842 H       1  ZINC001162683355    0.1300
     45 H45       -15.1714   -2.1470   57.1490 H       1  ZINC001162683355    0.1300
     46 H46       -14.0545   -4.3388   57.0416 H       1  ZINC001162683355    0.1300
     47 H47       -11.5993   -4.4771   57.1686 H       1  ZINC001162683355    0.1200
     48 H48        -9.4323    2.1361   52.2272 H       1  ZINC001162683355    0.0500
     49 H49        -9.0351    3.3357   53.4818 H       1  ZINC001162683355    0.0900
@<TRIPOS>BOND
     1     1     2    1
     2     1    27    1
     3     1    28    1
     4     1    29    1
     5     2    26    1
     6     2     3    1
     7     3     4    1
     8     3    30    1
     9     3    31    1
    10     4     5    1
    11     4    32    1
    12     4    33    1
    13     5     6    1
    14     6     7    1
    15     6     8    1
    16     6    26    1
    17     8     9    1
    18     8    34    1
    19     8    35    1
    20     9    10    1
    21     9    36    1
    22    10    15   ar
    23    10    11   ar
    24    11    18    1
    25    11    12   ar
    26    12    13   ar
    27    12    16    1
    28    13    14   ar
    29    13    37    1
    30    14    15   ar
    31    14    38    1
    32    16    17    2
    33    16    39    1
    34    17    18    1
    35    17    40    1
    36    18    19    1
    37    19    20    1
    38    19    41    1
    39    19    42    1
    40    20    25   ar
    41    20    21   ar
    42    21    22   ar
    43    21    43    1
    44    22    23   ar
    45    22    44    1
    46    23    24   ar
    47    23    45    1
    48    24    25   ar
    49    24    46    1
    50    25    47    1
    51    26    48    1
    52    26    49    1
@<TRIPOS>SUBSTRUCTURE
     1 ZINC001162683355        1 TEMP              0 ****  ****    0 ROOT


##########                                Name:    ZINC001053433946
##########                DOCK_Rotatable_Bonds:                   6
##########                         Heavy_Atoms:                  24
##########                    Molecular_Weight:             337.419
##########                DOCK_Rotatable_Bonds:                   6
##########                       Formal_Charge:               -0.02
##########                     HBond_Acceptors:                   7
##########                        HBond_Donors:                   2
##########                         Heavy_Atoms:                  24
##########                          Grid_Score:          -27.721069
##########                     Grid_vdw_energy:          -27.224197
##########                      Grid_es_energy:           -0.496872
##########           Internal_energy_repulsive:           19.283440

@<TRIPOS>MOLECULE
ZINC001053433946
 51 54 1 0 0
SMALL
USER_CHARGES


@<TRIPOS>ATOM
      1 N1         -7.2366    2.5243   50.2761 N.am    1  ZINC001053433946   -0.8300
      2 C2         -6.8942    3.6396   50.9508 C.2     1  ZINC001053433946    0.5600
      3 O3         -7.4714    4.6832   50.7301 O.2     1  ZINC001053433946   -0.5500
      4 C4         -5.7941    3.5900   51.9797 C.3     1  ZINC001053433946   -0.1600
      5 H5         -5.4628    4.5559   52.3607 H       1  ZINC001053433946    0.1400
      6 C6         -4.7419    2.4885   51.8363 C.3     1  ZINC001053433946   -0.1300
      7 C7         -5.7880    2.4078   52.9509 C.3     1  ZINC001053433946   -0.1700
      8 H8         -5.4524    2.5958   53.9707 H       1  ZINC001053433946    0.1400
      9 C9         -6.8819    1.3814   52.8056 C.2     1  ZINC001053433946    0.5400
     10 O10        -6.6341    0.2947   52.3275 O.2     1  ZINC001053433946   -0.5200
     11 N11        -8.1355    1.6712   53.2068 N.am    1  ZINC001053433946   -0.6100
     12 C12        -8.4619    2.9820   53.7897 C.3     1  ZINC001053433946    0.0700
     13 C13        -9.1763    2.7614   55.1272 C.3     1  ZINC001053433946    0.0500
     14 O14       -10.3014    1.8999   54.9273 O.3     1  ZINC001053433946   -0.3400
     15 C15        -9.9627    0.6154   54.4116 C.3     1  ZINC001053433946    0.0800
     16 C16        -9.2877   -0.3045   55.4378 C.3     1  ZINC001053433946   -0.0100
     17 N17       -10.6533   -0.7783   55.7582 N.3     1  ZINC001053433946   -0.4700
     18 C18       -10.6806   -2.2387   55.9153 C.3     1  ZINC001053433946    0.0200
     19 C19       -11.1968   -2.5919   57.3116 C.3     1  ZINC001053433946   -0.1200
     20 H20       -11.3695   -3.6662   57.3752 H       1  ZINC001053433946    0.0800
     21 C21       -10.1604   -2.1771   58.3606 C.3     1  ZINC001053433946   -0.1200
     22 C22       -10.7207   -2.4640   59.7570 C.3     1  ZINC001053433946   -0.1600
     23 C23       -12.0489   -1.7222   59.9278 C.3     1  ZINC001053433946    0.0600
     24 O24       -12.9566   -2.1313   58.9026 O.3     1  ZINC001053433946   -0.3800
     25 C25       -12.5076   -1.8464   57.5762 C.3     1  ZINC001053433946    0.0700
     26 C26       -11.1302   -0.3803   54.4143 C.3     1  ZINC001053433946    0.0200
     27 C27        -9.2238    0.6874   53.0700 C.3     1  ZINC001053433946    0.1000
     28 H28        -7.9439    2.5566   49.6131 H       1  ZINC001053433946    0.4000
     29 H29        -6.7731    1.6903   50.4506 H       1  ZINC001053433946    0.4000
     30 H30        -4.8453    1.7998   50.9978 H       1  ZINC001053433946    0.1100
     31 H31        -3.7185    2.7298   52.1234 H       1  ZINC001053433946    0.1200
     32 H32        -7.5447    3.5476   53.9542 H       1  ZINC001053433946    0.1000
     33 H33        -9.1159    3.5308   53.1121 H       1  ZINC001053433946    0.0800
     34 H34        -8.4875    2.3017   55.8360 H       1  ZINC001053433946    0.0600
     35 H35        -9.5170    3.7195   55.5199 H       1  ZINC001053433946    0.1100
     36 H36        -8.6510   -1.0683   54.9915 H       1  ZINC001053433946    0.0800
     37 H37        -8.8045    0.2295   56.2560 H       1  ZINC001053433946    0.0900
     38 H38       -11.3399   -2.6727   55.1636 H       1  ZINC001053433946    0.0500
     39 H39        -9.6737   -2.6365   55.7887 H       1  ZINC001053433946    0.0800
     40 H40        -9.2430   -2.7466   58.2117 H       1  ZINC001053433946    0.0700
     41 H41        -9.9498   -1.1121   58.2639 H       1  ZINC001053433946    0.0700
     42 H42       -10.8846   -3.5356   59.8708 H       1  ZINC001053433946    0.0700
     43 H43       -10.0124   -2.1209   60.5112 H       1  ZINC001053433946    0.0700
     44 H44       -12.4734   -1.9568   60.9039 H       1  ZINC001053433946    0.0900
     45 H45       -11.8777   -0.6482   59.8542 H       1  ZINC001053433946    0.0500
     46 H46       -12.3419   -0.7742   57.4709 H       1  ZINC001053433946    0.0500
     47 H47       -13.2624   -2.1698   56.8595 H       1  ZINC001053433946    0.1000
     48 H48       -12.1118    0.0934   54.4187 H       1  ZINC001053433946    0.1000
     49 H49       -11.0390   -1.1665   53.6649 H       1  ZINC001053433946    0.0900
     50 H50        -9.9138    0.9991   52.2858 H       1  ZINC001053433946    0.0800
     51 H51        -8.8060   -0.2895   52.8267 H       1  ZINC001053433946    0.1000
@<TRIPOS>BOND
     1     1     2   am
     2     1    28    1
     3     1    29    1
     4     2     3    2
     5     2     4    1
     6     4     5    1
     7     4     7    1
     8     4     6    1
     9     6     7    1
    10     6    30    1
    11     6    31    1
    12     7     8    1
    13     7     9    1
    14     9    10    2
    15     9    11   am
    16    11    27    1
    17    11    12    1
    18    12    13    1
    19    12    32    1
    20    12    33    1
    21    13    14    1
    22    13    34    1
    23    13    35    1
    24    14    15    1
    25    15    26    1
    26    15    16    1
    27    15    27    1
    28    16    17    1
    29    16    36    1
    30    16    37    1
    31    17    18    1
    32    17    26    1
    33    18    19    1
    34    18    38    1
    35    18    39    1
    36    19    20    1
    37    19    25    1
    38    19    21    1
    39    21    22    1
    40    21    40    1
    41    21    41    1
    42    22    23    1
    43    22    42    1
    44    22    43    1
    45    23    24    1
    46    23    44    1
    47    23    45    1
    48    24    25    1
    49    25    46    1
    50    25    47    1
    51    26    48    1
    52    26    49    1
    53    27    50    1
    54    27    51    1
@<TRIPOS>SUBSTRUCTURE
     1 ZINC001053433946        1 TEMP              0 ****  ****    0 ROOT


##########                                Name:    ZINC000458730620
##########                DOCK_Rotatable_Bonds:                   9
##########                         Heavy_Atoms:                  25
##########                    Molecular_Weight:              375.44
##########                DOCK_Rotatable_Bonds:                   9
##########                       Formal_Charge:        -1.86265e-07
##########                     HBond_Acceptors:                   9
##########                        HBond_Donors:                   3
##########                         Heavy_Atoms:                  25
##########                          Grid_Score:          -27.709503
##########                     Grid_vdw_energy:          -27.596767
##########                      Grid_es_energy:           -0.112736
##########           Internal_energy_repulsive:           51.821690

@<TRIPOS>MOLECULE
ZINC000458730620
 48 49 1 0 0
SMALL
USER_CHARGES


@<TRIPOS>ATOM
      1 C1         -7.5451    4.5339   54.7475 C.3     1  ZINC000458730620   -0.1600
      2 C2         -6.8445    3.2751   54.2321 C.3     1  ZINC000458730620    0.2000
      3 C3         -5.3302    3.4935   54.2436 C.3     1  ZINC000458730620   -0.1600
      4 N4         -7.1808    2.1406   55.0959 N.am    1  ZINC000458730620   -0.7400
      5 C5         -8.4510    1.6941   55.1578 C.2     1  ZINC000458730620    0.7100
      6 O6         -9.3180    2.2339   54.4979 O.2     1  ZINC000458730620   -0.5800
      7 N7         -8.7601    0.6494   55.9512 N.am    1  ZINC000458730620   -0.7500
      8 C8        -10.1404    0.1630   56.0172 C.3     1  ZINC000458730620    0.1300
      9 C9        -10.3735   -0.5290   57.3617 C.3     1  ZINC000458730620    0.1000
     10 N10       -10.0642   -1.9555   57.2369 N.am    1  ZINC000458730620   -1.1100
     11 S11       -10.3386   -2.9768   58.5112 S.o2    1  ZINC000458730620    2.7000
     12 O12       -10.0872   -4.2912   58.0333 O.2     1  ZINC000458730620   -0.9400
     13 O13        -9.6649   -2.4141   59.6287 O.2     1  ZINC000458730620   -0.9400
     14 C14       -12.0602   -2.9017   58.8785 C.ar    1  ZINC000458730620   -0.7300
     15 C15       -12.4958   -2.2518   60.0177 C.ar    1  ZINC000458730620    0.0400
     16 C16       -13.8461   -2.1917   60.3067 C.ar    1  ZINC000458730620   -0.1800
     17 C17       -14.7639   -2.7826   59.4551 C.ar    1  ZINC000458730620    0.1900
     18 F18       -16.0837   -2.7233   59.7377 F       1  ZINC000458730620   -0.1200
     19 C19       -14.3288   -3.4339   58.3136 C.ar    1  ZINC000458730620   -0.2100
     20 C20       -12.9769   -3.4890   58.0224 C.ar    1  ZINC000458730620    0.2200
     21 F21       -12.5509   -4.1243   56.9089 F       1  ZINC000458730620   -0.1100
     22 C22        -7.3069    2.9829   52.8032 C.3     1  ZINC000458730620   -0.1100
     23 C23        -6.5729    3.8125   51.7365 C.3     1  ZINC000458730620   -0.1400
     24 C24        -6.5579    2.5414   50.8711 C.3     1  ZINC000458730620   -0.1400
     25 C25        -6.6431    1.7425   52.1824 C.3     1  ZINC000458730620   -0.1400
     26 H26        -7.2464    5.3896   54.1422 H       1  ZINC000458730620    0.0600
     27 H27        -8.6251    4.4014   54.6815 H       1  ZINC000458730620    0.0500
     28 H28        -7.2632    4.7072   55.7860 H       1  ZINC000458730620    0.0800
     29 H29        -5.0008    3.7017   55.2615 H       1  ZINC000458730620    0.0800
     30 H30        -4.8310    2.5968   53.8764 H       1  ZINC000458730620    0.0500
     31 H31        -5.0799    4.3377   53.6009 H       1  ZINC000458730620    0.0600
     32 H32        -6.4894    1.7108   55.6231 H       1  ZINC000458730620    0.3900
     33 H33        -8.0686    0.2196   56.4785 H       1  ZINC000458730620    0.4000
     34 H34       -10.8270    1.0036   55.9174 H       1  ZINC000458730620    0.0800
     35 H35       -10.3147   -0.5466   55.2084 H       1  ZINC000458730620    0.0800
     36 H36        -9.7275   -0.0819   58.1173 H       1  ZINC000458730620    0.0900
     37 H37       -11.4157   -0.4076   57.6569 H       1  ZINC000458730620    0.0700
     38 H38        -9.6988   -2.3018   56.4078 H       1  ZINC000458730620    0.4300
     39 H39       -11.7805   -1.7909   60.6827 H       1  ZINC000458730620    0.1700
     40 H40       -14.1853   -1.6839   61.1974 H       1  ZINC000458730620    0.1600
     41 H41       -15.0440   -3.8952   57.6488 H       1  ZINC000458730620    0.1600
     42 H42        -8.3917    2.9962   52.6984 H       1  ZINC000458730620    0.1100
     43 H43        -7.1764    4.6182   51.3183 H       1  ZINC000458730620    0.0700
     44 H44        -5.5810    4.1419   52.0457 H       1  ZINC000458730620    0.0800
     45 H45        -7.4379    2.4345   50.2369 H       1  ZINC000458730620    0.0800
     46 H46        -5.6238    2.3930   50.3294 H       1  ZINC000458730620    0.0700
     47 H47        -5.6703    1.5060   52.6136 H       1  ZINC000458730620    0.0800
     48 H48        -7.3031    0.8771   52.1243 H       1  ZINC000458730620    0.0700
@<TRIPOS>BOND
     1     1     2    1
     2     1    26    1
     3     1    27    1
     4     1    28    1
     5     2     3    1
     6     2     4    1
     7     2    22    1
     8     3    29    1
     9     3    30    1
    10     3    31    1
    11     4     5   am
    12     4    32    1
    13     5     6    2
    14     5     7   am
    15     7     8    1
    16     7    33    1
    17     8     9    1
    18     8    34    1
    19     8    35    1
    20     9    10    1
    21     9    36    1
    22     9    37    1
    23    10    11   am
    24    10    38    1
    25    11    12    2
    26    11    13    2
    27    11    14    1
    28    14    20   ar
    29    14    15   ar
    30    15    16   ar
    31    15    39    1
    32    16    17   ar
    33    16    40    1
    34    17    18    1
    35    17    19   ar
    36    19    20   ar
    37    19    41    1
    38    20    21    1
    39    22    25    1
    40    22    23    1
    41    22    42    1
    42    23    24    1
    43    23    43    1
    44    23    44    1
    45    24    25    1
    46    24    45    1
    47    24    46    1
    48    25    47    1
    49    25    48    1
@<TRIPOS>SUBSTRUCTURE
     1 ZINC000458730620        1 TEMP              0 ****  ****    0 ROOT


##########                                Name:    ZINC000274225049
##########                DOCK_Rotatable_Bonds:                   6
##########                         Heavy_Atoms:                  25
##########                    Molecular_Weight:             380.895
##########                DOCK_Rotatable_Bonds:                   6
##########                       Formal_Charge:           0.0200006
##########                     HBond_Acceptors:                   7
##########                        HBond_Donors:                   2
##########                         Heavy_Atoms:                  25
##########                          Grid_Score:          -27.693630
##########                     Grid_vdw_energy:          -26.912771
##########                      Grid_es_energy:           -0.780858
##########           Internal_energy_repulsive:           14.238427

@<TRIPOS>MOLECULE
ZINC000274225049
 46 48 1 0 0
SMALL
USER_CHARGES


@<TRIPOS>ATOM
      1 C1         -8.3710   -1.2123   59.3170 C.3     1  ZINC000274225049   -0.1600
      2 C2         -9.4310   -0.5034   58.4716 C.3     1  ZINC000274225049    0.2000
      3 H3         -9.4849   -0.9718   57.4888 H       1  ZINC000274225049    0.1100
      4 N4         -9.0711    0.9086   58.3204 N.am    1  ZINC000274225049   -0.7400
      5 C5         -8.3249    1.3052   57.2705 C.2     1  ZINC000274225049    0.7100
      6 O6         -7.9517    0.4913   56.4480 O.2     1  ZINC000274225049   -0.5800
      7 N7         -7.9925    2.6040   57.1324 N.am    1  ZINC000274225049   -0.7500
      8 C8         -7.1829    3.0354   55.9902 C.3     1  ZINC000274225049    0.1500
      9 C9         -5.8160    3.5124   56.4851 C.3     1  ZINC000274225049   -0.1000
     10 H10        -5.9362    4.3792   57.1349 H       1  ZINC000274225049    0.1000
     11 C11        -4.9181    3.8714   55.2881 C.3     1  ZINC000274225049   -0.1100
     12 C12        -3.4659    4.0158   55.7853 C.3     1  ZINC000274225049   -0.5900
     13 S13        -3.3520    2.9217   57.2467 S.o2    1  ZINC000274225049    2.3900
     14 O14        -2.5099    1.8179   56.9441 O.2     1  ZINC000274225049   -0.9300
     15 O15        -3.1012    3.7068   58.4043 O.2     1  ZINC000274225049   -0.9300
     16 C16        -5.1002    2.3699   57.2509 C.3     1  ZINC000274225049   -0.5900
     17 C17       -10.7709   -0.6103   59.1530 C.ar    1  ZINC000274225049   -0.0700
     18 C18       -11.6823   -1.6070   58.7658 C.ar    1  ZINC000274225049   -0.0300
     19 C19       -11.3733   -2.5214   57.7442 C.ar    1  ZINC000274225049   -0.1100
     20 C20       -12.2807   -3.4739   57.3961 C.ar    1  ZINC000274225049   -0.1100
     21 C21       -13.5152   -3.5577   58.0377 C.ar    1  ZINC000274225049   -0.1100
     22 C22       -13.8489   -2.6895   59.0312 C.ar    1  ZINC000274225049   -0.1000
     23 C23       -12.9376   -1.6923   59.4183 C.ar    1  ZINC000274225049   -0.0400
     24 C24       -13.2464   -0.7777   60.4407 C.ar    1  ZINC000274225049   -0.0300
     25 Cl25      -14.7773   -0.8629   61.2550 Cl      1  ZINC000274225049   -0.0600
     26 C26       -12.3373    0.1754   60.7891 C.ar    1  ZINC000274225049   -0.1000
     27 C27       -11.1018    0.2551   60.1505 C.ar    1  ZINC000274225049   -0.1000
     28 H28        -7.4019   -1.1352   58.8241 H       1  ZINC000274225049    0.0700
     29 H29        -8.3171   -0.7439   60.2998 H       1  ZINC000274225049    0.0700
     30 H30        -8.6388   -2.2629   59.4294 H       1  ZINC000274225049    0.0800
     31 H31        -9.3698    1.5581   58.9761 H       1  ZINC000274225049    0.4000
     32 H32        -8.2892    3.2531   57.7893 H       1  ZINC000274225049    0.4000
     33 H33        -7.0493    2.1997   55.3032 H       1  ZINC000274225049    0.0800
     34 H34        -7.6880    3.8523   55.4748 H       1  ZINC000274225049    0.0800
     35 H35        -4.9722    3.0812   54.5394 H       1  ZINC000274225049    0.0900
     36 H36        -5.2507    4.8124   54.8498 H       1  ZINC000274225049    0.0900
     37 H37        -2.7677    3.6909   55.0139 H       1  ZINC000274225049    0.1400
     38 H38        -3.2639    5.0486   56.0691 H       1  ZINC000274225049    0.1400
     39 H39        -5.4782    2.2897   58.2701 H       1  ZINC000274225049    0.1400
     40 H40        -5.2084    1.4232   56.7215 H       1  ZINC000274225049    0.1400
     41 H41       -10.4207   -2.4683   57.2380 H       1  ZINC000274225049    0.1300
     42 H42       -12.0410   -4.1752   56.6105 H       1  ZINC000274225049    0.1300
     43 H43       -14.2176   -4.3230   57.7419 H       1  ZINC000274225049    0.1300
     44 H44       -14.8093   -2.7662   59.5193 H       1  ZINC000274225049    0.1300
     45 H45       -12.5766    0.8771   61.5744 H       1  ZINC000274225049    0.1300
     46 H46       -10.3990    1.0202   60.4457 H       1  ZINC000274225049    0.1300
@<TRIPOS>BOND
     1     1     2    1
     2     1    28    1
     3     1    29    1
     4     1    30    1
     5     2     3    1
     6     2     4    1
     7     2    17    1
     8     4     5   am
     9     4    31    1
    10     5     6    2
    11     5     7   am
    12     7     8    1
    13     7    32    1
    14     8     9    1
    15     8    33    1
    16     8    34    1
    17     9    10    1
    18     9    16    1
    19     9    11    1
    20    11    12    1
    21    11    35    1
    22    11    36    1
    23    12    13    1
    24    12    37    1
    25    12    38    1
    26    13    14    2
    27    13    15    2
    28    13    16    1
    29    16    39    1
    30    16    40    1
    31    17    27   ar
    32    17    18   ar
    33    18    23   ar
    34    18    19   ar
    35    19    20   ar
    36    19    41    1
    37    20    21   ar
    38    20    42    1
    39    21    22   ar
    40    21    43    1
    41    22    23   ar
    42    22    44    1
    43    23    24   ar
    44    24    25    1
    45    24    26   ar
    46    26    27   ar
    47    26    45    1
    48    27    46    1
@<TRIPOS>SUBSTRUCTURE
     1 ZINC000274225049        1 TEMP              0 ****  ****    0 ROOT


##########                                Name:    ZINC000543625960
##########                DOCK_Rotatable_Bonds:                   8
##########                         Heavy_Atoms:                  29
##########                    Molecular_Weight:             416.544
##########                DOCK_Rotatable_Bonds:                   8
##########                       Formal_Charge:           -0.010001
##########                     HBond_Acceptors:                   8
##########                        HBond_Donors:                   2
##########                         Heavy_Atoms:                  29
##########                          Grid_Score:          -27.672613
##########                     Grid_vdw_energy:          -26.399511
##########                      Grid_es_energy:           -1.273101
##########           Internal_energy_repulsive:           21.435637

@<TRIPOS>MOLECULE
ZINC000543625960
 57 59 1 0 0
SMALL
USER_CHARGES


@<TRIPOS>ATOM
      1 C1         -9.5411    4.4660   52.3799 C.3     1  ZINC000543625960   -0.1500
      2 C2         -8.0232    4.6434   52.4531 C.3     1  ZINC000543625960   -0.1300
      3 C3         -7.3637    3.8704   51.3091 C.3     1  ZINC000543625960    0.1500
      4 H4         -6.2823    3.9967   51.3612 H       1  ZINC000543625960    0.0800
      5 C5         -7.8758    4.4053   49.9702 C.3     1  ZINC000543625960   -0.1700
      6 N6         -7.6954    2.4482   51.4257 N.am    1  ZINC000543625960   -1.1100
      7 S7         -6.7177    1.4391   52.3021 S.o2    1  ZINC000543625960    2.7000
      8 O8         -7.3790    0.1823   52.3510 O.2     1  ZINC000543625960   -0.9600
      9 O9         -5.4039    1.6064   51.7872 O.2     1  ZINC000543625960   -0.9500
     10 C10        -6.6860    2.0493   53.9548 C.ar    1  ZINC000543625960   -0.6600
     11 C11        -5.7270    2.9709   54.3323 C.ar    1  ZINC000543625960   -0.0400
     12 C12        -5.6986    3.4523   55.6285 C.ar    1  ZINC000543625960   -0.1200
     13 C13        -6.6288    3.0134   56.5501 C.ar    1  ZINC000543625960   -0.0600
     14 C14        -7.5937    2.0881   56.1738 C.ar    1  ZINC000543625960    0.1500
     15 N15        -8.5378    1.6413   57.1053 N.am    1  ZINC000543625960   -0.6800
     16 C16        -8.2275    0.6397   57.9519 C.2     1  ZINC000543625960    0.7200
     17 O17        -7.1272    0.1242   57.9064 O.2     1  ZINC000543625960   -0.5600
     18 N18        -9.1366    0.2094   58.8490 N.am    1  ZINC000543625960   -0.6300
     19 C19        -8.9308   -0.8722   59.8294 C.3     1  ZINC000543625960    0.0900
     20 C20        -9.9381   -0.5726   60.9676 C.3     1  ZINC000543625960   -0.1000
     21 H21       -10.1960   -1.4820   61.5104 H       1  ZINC000543625960    0.1000
     22 C22        -9.3900    0.4934   61.9185 C.3     1  ZINC000543625960   -0.1500
     23 C23       -11.1568   -0.0354   60.1717 C.3     1  ZINC000543625960   -0.1200
     24 C24       -10.4955    0.7450   59.0162 C.3     1  ZINC000543625960    0.2000
     25 H25       -10.4533    1.8062   59.2621 H       1  ZINC000543625960    0.0900
     26 C26       -11.2815    0.5443   57.7462 C.ar    1  ZINC000543625960   -0.1400
     27 C27       -12.0076    1.5898   57.1974 C.ar    1  ZINC000543625960   -0.0600
     28 C28       -12.7154    1.3591   56.0275 C.ar    1  ZINC000543625960   -0.1700
     29 C29       -12.6738    0.1037   55.4516 C.ar    1  ZINC000543625960    0.1000
     30 N30       -11.9719   -0.8679   56.0019 N.ar    1  ZINC000543625960   -0.4800
     31 C31       -11.2828   -0.6832   57.1107 C.ar    1  ZINC000543625960    0.1200
     32 C32        -7.6227    1.6107   54.8704 C.ar    1  ZINC000543625960   -0.0500
     33 H33       -10.0109    5.0167   53.1949 H       1  ZINC000543625960    0.0600
     34 H34        -9.9060    4.8471   51.4261 H       1  ZINC000543625960    0.0600
     35 H35        -9.7879    3.4079   52.4667 H       1  ZINC000543625960    0.0500
     36 H36        -7.7765    5.7016   52.3662 H       1  ZINC000543625960    0.0700
     37 H37        -7.6584    4.2623   53.4069 H       1  ZINC000543625960    0.0800
     38 H38        -7.6290    5.4635   49.8835 H       1  ZINC000543625960    0.0700
     39 H39        -7.4059    3.8547   49.1553 H       1  ZINC000543625960    0.0700
     40 H40        -8.9572    4.2790   49.9181 H       1  ZINC000543625960    0.0600
     41 H41        -8.4877    2.0976   50.9895 H       1  ZINC000543625960    0.4200
     42 H42        -4.9981    3.3154   53.6136 H       1  ZINC000543625960    0.1400
     43 H43        -4.9481    4.1718   55.9205 H       1  ZINC000543625960    0.1400
     44 H44        -6.6058    3.3892   57.5623 H       1  ZINC000543625960    0.1400
     45 H45        -9.4155    2.0526   57.1417 H       1  ZINC000543625960    0.4100
     46 H46        -9.1464   -1.8403   59.3772 H       1  ZINC000543625960    0.0700
     47 H47        -7.9099   -0.8495   60.2107 H       1  ZINC000543625960    0.0800
     48 H48        -9.1804    1.4055   61.3597 H       1  ZINC000543625960    0.0600
     49 H49       -10.1276    0.7031   62.6931 H       1  ZINC000543625960    0.0600
     50 H50        -8.4715    0.1308   62.3801 H       1  ZINC000543625960    0.0600
     51 H51       -11.7611   -0.8582   59.7898 H       1  ZINC000543625960    0.0800
     52 H52       -11.7578    0.6313   60.7900 H       1  ZINC000543625960    0.0900
     53 H53       -12.0221    2.5608   57.6699 H       1  ZINC000543625960    0.1300
     54 H54       -13.2924    2.1506   55.5723 H       1  ZINC000543625960    0.1400
     55 H55       -13.2226   -0.0841   54.5406 H       1  ZINC000543625960    0.1600
     56 H56       -10.7197   -1.5030   57.5319 H       1  ZINC000543625960    0.1400
     57 H57        -8.3718    0.8910   54.5747 H       1  ZINC000543625960    0.1400
@<TRIPOS>BOND
     1     1     2    1
     2     1    33    1
     3     1    34    1
     4     1    35    1
     5     2     3    1
     6     2    36    1
     7     2    37    1
     8     3     4    1
     9     3     5    1
    10     3     6    1
    11     5    38    1
    12     5    39    1
    13     5    40    1
    14     6     7   am
    15     6    41    1
    16     7     8    2
    17     7     9    2
    18     7    10    1
    19    10    32   ar
    20    10    11   ar
    21    11    12   ar
    22    11    42    1
    23    12    13   ar
    24    12    43    1
    25    13    14   ar
    26    13    44    1
    27    14    15    1
    28    14    32   ar
    29    15    16   am
    30    15    45    1
    31    16    17    2
    32    16    18   am
    33    18    24    1
    34    18    19    1
    35    19    20    1
    36    19    46    1
    37    19    47    1
    38    20    21    1
    39    20    22    1
    40    20    23    1
    41    22    48    1
    42    22    49    1
    43    22    50    1
    44    23    24    1
    45    23    51    1
    46    23    52    1
    47    24    25    1
    48    24    26    1
    49    26    31   ar
    50    26    27   ar
    51    27    28   ar
    52    27    53    1
    53    28    29   ar
    54    28    54    1
    55    29    30   ar
    56    29    55    1
    57    30    31   ar
    58    31    56    1
    59    32    57    1
@<TRIPOS>SUBSTRUCTURE
     1 ZINC000543625960        1 TEMP              0 ****  ****    0 ROOT


##########                                Name:    ZINC000350493047
##########                DOCK_Rotatable_Bonds:                   7
##########                         Heavy_Atoms:                  24
##########                    Molecular_Weight:             330.387
##########                DOCK_Rotatable_Bonds:                   7
##########                       Formal_Charge:          -0.0300002
##########                     HBond_Acceptors:                   7
##########                        HBond_Donors:                   3
##########                         Heavy_Atoms:                  24
##########                          Grid_Score:          -27.658113
##########                     Grid_vdw_energy:          -26.887789
##########                      Grid_es_energy:           -0.770325
##########           Internal_energy_repulsive:           15.507071

@<TRIPOS>MOLECULE
ZINC000350493047
 46 48 1 0 0
SMALL
USER_CHARGES


@<TRIPOS>ATOM
      1 C1         -5.2947    3.2447   52.6372 C.3     1  <0>        -0.1600
      2 C2         -5.9601    2.1952   51.7447 C.3     1  <0>         0.2600
      3 H3         -5.1951    1.5587   51.2999 H       1  <0>         0.1200
      4 N4         -6.7157    2.8649   50.6833 N.am    1  <0>        -0.7400
      5 C5         -7.8608    3.5123   50.9767 C.2     1  <0>         0.7100
      6 N6         -8.5551    4.1298   50.0005 N.am    1  <0>        -0.8600
      7 O7         -8.2676    3.5391   52.1222 O.2     1  <0>        -0.5900
      8 C8         -6.8959    1.3523   52.5724 C.2     1  <0>         0.1700
      9 N9         -7.6659    0.4017   52.1315 N.2     1  <0>        -0.3800
     10 O10        -8.2989   -0.0891   53.0423 O.3     1  <0>         0.0900
     11 C11        -7.9825    0.5230   54.1942 C.2     1  <0>         0.2400
     12 C12        -8.5309    0.2231   55.5320 C.ar    1  <0>        -0.0800
     13 C13        -7.8063    0.5606   56.6776 C.ar    1  <0>        -0.0200
     14 C14        -8.3213    0.2791   57.9239 C.ar    1  <0>        -0.2200
     15 C15        -9.5596   -0.3401   58.0423 C.ar    1  <0>         0.1700
     16 O16       -10.0635   -0.6162   59.2725 O.3     1  <0>        -0.3000
     17 C17        -9.9915    0.4225   60.2512 C.3     1  <0>         0.0800
     18 C18       -11.3838    0.6703   60.8351 C.3     1  <0>        -0.1500
     19 C19       -11.3067    1.7824   61.8831 C.3     1  <0>        -0.1200
     20 C20       -10.3515    1.3632   63.0023 C.3     1  <0>        -0.1300
     21 C21        -8.9592    1.1153   62.4184 C.3     1  <0>        -0.1200
     22 C22        -9.0362    0.0032   61.3705 C.3     1  <0>        -0.1200
     23 C23       -10.2836   -0.6770   56.9053 C.ar    1  <0>        -0.1600
     24 C24        -9.7782   -0.3936   55.6555 C.ar    1  <0>        -0.0300
     25 N25        -7.0808    1.4433   53.8985 N.2     1  <0>        -0.4700
     26 H26        -6.0597    3.8811   53.0819 H       1  <0>         0.0600
     27 H27        -4.7325    2.7464   53.4269 H       1  <0>         0.0700
     28 H28        -4.6180    3.8543   52.0385 H       1  <0>         0.0800
     29 H29        -6.3918    2.8426   49.7692 H       1  <0>         0.4000
     30 H30        -9.3786    4.5967   50.2120 H       1  <0>         0.4000
     31 H31        -8.2313    4.1075   49.0864 H       1  <0>         0.4200
     32 H32        -6.8435    1.0412   56.5863 H       1  <0>         0.1400
     33 H33        -7.7618    0.5396   58.8101 H       1  <0>         0.1400
     34 H34        -9.6252    1.3368   59.7844 H       1  <0>         0.0800
     35 H35       -12.0643    0.9690   60.0378 H       1  <0>         0.0700
     36 H36       -11.7501   -0.2441   61.3020 H       1  <0>         0.0800
     37 H37       -10.9404    2.6968   61.4163 H       1  <0>         0.0600
     38 H38       -12.2986    1.9590   62.2991 H       1  <0>         0.0700
     39 H39       -10.2966    2.1555   63.7490 H       1  <0>         0.0700
     40 H40       -10.7177    0.4489   63.4692 H       1  <0>         0.0700
     41 H41        -8.5930    2.0297   61.9515 H       1  <0>         0.0700
     42 H42        -8.2787    0.8166   63.2158 H       1  <0>         0.0700
     43 H43        -9.4025   -0.9112   61.8373 H       1  <0>         0.0800
     44 H44        -8.0444   -0.1734   60.9545 H       1  <0>         0.0700
     45 H45       -11.2459   -1.1579   57.0016 H       1  <0>         0.1400
     46 H46       -10.3417   -0.6555   54.7721 H       1  <0>         0.1400
@<TRIPOS>BOND
     1     1     2    1
     2     1    26    1
     3     1    27    1
     4     1    28    1
     5     2     3    1
     6     2     4    1
     7     2     8    1
     8     4     5   am
     9     4    29    1
    10     5     6   am
    11     5     7    2
    12     6    30    1
    13     6    31    1
    14     8    25    1
    15     8     9    2
    16     9    10    1
    17    10    11    1
    18    11    12    1
    19    11    25    2
    20    12    24   ar
    21    12    13   ar
    22    13    14   ar
    23    13    32    1
    24    14    15   ar
    25    14    33    1
    26    15    16    1
    27    15    23   ar
    28    16    17    1
    29    17    22    1
    30    17    18    1
    31    17    34    1
    32    18    19    1
    33    18    35    1
    34    18    36    1
    35    19    20    1
    36    19    37    1
    37    19    38    1
    38    20    21    1
    39    20    39    1
    40    20    40    1
    41    21    22    1
    42    21    41    1
    43    21    42    1
    44    22    43    1
    45    22    44    1
    46    23    24   ar
    47    23    45    1
    48    24    46    1
@<TRIPOS>SUBSTRUCTURE
     1 <0>         1 TEMP              0 ****  ****    0 ROOT


##########                                Name:    ZINC000179743483
##########                DOCK_Rotatable_Bonds:                   5
##########                         Heavy_Atoms:                  23
##########                    Molecular_Weight:             393.347
##########                DOCK_Rotatable_Bonds:                   5
##########                       Formal_Charge:          -0.0199999
##########                     HBond_Acceptors:                   4
##########                        HBond_Donors:                   0
##########                         Heavy_Atoms:                  23
##########                          Grid_Score:          -27.657749
##########                     Grid_vdw_energy:          -26.581564
##########                      Grid_es_energy:           -1.076185
##########           Internal_energy_repulsive:           20.734407

@<TRIPOS>MOLECULE
ZINC000179743483
 44 46 1 0 0
SMALL
USER_CHARGES


@<TRIPOS>ATOM
      1 C1        -10.1701   -3.2959   57.0770 C.3     1  ZINC000179743483   -0.1400
      2 C2        -11.2914   -2.3434   57.4970 C.3     1  ZINC000179743483   -0.1000
      3 H3        -11.0848   -1.9567   58.4951 H       1  ZINC000179743483    0.1000
      4 C4        -11.3707   -1.1804   56.5059 C.3     1  ZINC000179743483   -0.0700
      5 C5        -10.1222   -0.3433   56.6128 C.ar    1  ZINC000179743483   -0.0600
      6 C6         -9.3384   -0.1254   55.4950 C.ar    1  ZINC000179743483   -0.1100
      7 C7         -8.1935    0.6427   55.5925 C.ar    1  ZINC000179743483   -0.0900
      8 C8         -7.8318    1.1934   56.8087 C.ar    1  ZINC000179743483   -0.0900
      9 Br9        -6.2659    2.2449   56.9427 Br      1  ZINC000179743483   -0.0500
     10 C10        -8.6163    0.9752   57.9269 C.ar    1  ZINC000179743483   -0.0900
     11 C11        -9.7639    0.2113   57.8274 C.ar    1  ZINC000179743483   -0.1100
     12 C12       -12.6031   -3.0850   57.5072 C.2     1  ZINC000179743483    0.5200
     13 O13       -12.6903   -4.1703   56.9730 O.2     1  ZINC000179743483   -0.5300
     14 N14       -13.6795   -2.5423   58.1100 N.am    1  ZINC000179743483   -0.6100
     15 C15       -14.9651   -3.2535   58.1281 C.3     1  ZINC000179743483    0.1000
     16 C16       -15.4490   -3.3605   59.5777 C.3     1  ZINC000179743483   -0.1400
     17 C17       -15.4948   -1.9633   60.2005 C.3     1  ZINC000179743483   -0.1100
     18 C18       -14.0891   -1.3583   60.2040 C.3     1  ZINC000179743483   -0.0200
     19 H19       -13.4156   -2.0060   60.7653 H       1  ZINC000179743483    0.0900
     20 C20       -14.1294    0.0038   60.8475 C.2     1  ZINC000179743483    0.0500
     21 N21       -14.2327    0.2187   62.1155 N.2     1  ZINC000179743483   -0.4700
     22 C22       -14.2528    1.4753   62.5123 C.2     1  ZINC000179743483    0.0400
     23 C23       -14.1613    2.3700   61.5238 C.2     1  ZINC000179743483   -0.2600
     24 S24       -14.0375    1.4880   60.0036 S.3     1  ZINC000179743483    0.1300
     25 C25       -13.5881   -1.2313   58.7668 C.3     1  ZINC000179743483    0.1200
     26 H26       -10.4143   -3.7417   56.1127 H       1  ZINC000179743483    0.0700
     27 H27        -9.2348   -2.7423   56.9949 H       1  ZINC000179743483    0.0700
     28 H28       -10.0625   -4.0823   57.8240 H       1  ZINC000179743483    0.0600
     29 H29       -11.4599   -1.5720   55.4926 H       1  ZINC000179743483    0.0900
     30 H30       -12.2410   -0.5659   56.7359 H       1  ZINC000179743483    0.0800
     31 H31        -9.6207   -0.5558   54.5456 H       1  ZINC000179743483    0.1300
     32 H32        -7.5811    0.8125   54.7193 H       1  ZINC000179743483    0.1300
     33 H33        -8.3344    1.4050   58.8767 H       1  ZINC000179743483    0.1300
     34 H34       -10.3766    0.0409   58.7004 H       1  ZINC000179743483    0.1300
     35 H35       -15.6966   -2.7009   57.5385 H       1  ZINC000179743483    0.0700
     36 H36       -14.8360   -4.2523   57.7113 H       1  ZINC000179743483    0.0900
     37 H37       -16.4462   -3.8002   59.5968 H       1  ZINC000179743483    0.0800
     38 H38       -14.7627   -3.9894   60.1448 H       1  ZINC000179743483    0.0700
     39 H39       -16.1621   -1.3279   59.6183 H       1  ZINC000179743483    0.0800
     40 H40       -15.8623   -2.0339   61.2243 H       1  ZINC000179743483    0.0700
     41 H41       -14.3366    1.7587   63.5510 H       1  ZINC000179743483    0.1800
     42 H42       -14.1597    3.4441   61.6373 H       1  ZINC000179743483    0.1800
     43 H43       -12.5516   -0.8940   58.7696 H       1  ZINC000179743483    0.0900
     44 H44       -14.2064   -0.5145   58.2263 H       1  ZINC000179743483    0.0800
@<TRIPOS>BOND
     1     1     2    1
     2     1    26    1
     3     1    27    1
     4     1    28    1
     5     2     3    1
     6     2     4    1
     7     2    12    1
     8     4     5    1
     9     4    29    1
    10     4    30    1
    11     5    11   ar
    12     5     6   ar
    13     6     7   ar
    14     6    31    1
    15     7     8   ar
    16     7    32    1
    17     8     9    1
    18     8    10   ar
    19    10    11   ar
    20    10    33    1
    21    11    34    1
    22    12    13    2
    23    12    14   am
    24    14    25    1
    25    14    15    1
    26    15    16    1
    27    15    35    1
    28    15    36    1
    29    16    17    1
    30    16    37    1
    31    16    38    1
    32    17    18    1
    33    17    39    1
    34    17    40    1
    35    18    19    1
    36    18    20    1
    37    18    25    1
    38    20    24    1
    39    20    21    2
    40    21    22    1
    41    22    23    2
    42    22    41    1
    43    23    24    1
    44    23    42    1
    45    25    43    1
    46    25    44    1
@<TRIPOS>SUBSTRUCTURE
     1 ZINC000179743483        1 TEMP              0 ****  ****    0 ROOT


##########                                Name:    ZINC000013551438
##########                DOCK_Rotatable_Bonds:                   5
##########                         Heavy_Atoms:                  27
##########                    Molecular_Weight:             377.467
##########                DOCK_Rotatable_Bonds:                   5
##########                       Formal_Charge:          -0.0300005
##########                     HBond_Acceptors:                   6
##########                        HBond_Donors:                   1
##########                         Heavy_Atoms:                  27
##########                          Grid_Score:          -27.645317
##########                     Grid_vdw_energy:          -26.535576
##########                      Grid_es_energy:           -1.109740
##########           Internal_energy_repulsive:           19.768652

@<TRIPOS>MOLECULE
ZINC000013551438
 46 49 1 0 0
SMALL
USER_CHARGES


@<TRIPOS>ATOM
      1 C1         -9.7457   -2.0590   60.0656 C.3     1  <0>         0.0300
      2 O2        -10.5548   -2.1522   58.8915 O.3     1  <0>        -0.3200
      3 C3        -10.0642   -1.5850   57.7570 C.ar    1  <0>         0.1000
      4 C4        -10.3800   -2.1308   56.5160 C.ar    1  <0>        -0.1800
      5 C5         -9.8911   -1.5684   55.3579 C.ar    1  <0>        -0.0900
      6 C6         -9.0740   -0.4445   55.4215 C.ar    1  <0>         0.0700
      7 C7         -8.7545    0.1083   56.6734 C.ar    1  <0>        -0.0400
      8 C8         -9.2588   -0.4658   57.8399 C.ar    1  <0>        -0.1100
      9 C9         -7.8887    1.2660   56.3986 C.2     1  <0>        -0.1200
     10 C10        -7.2876    2.1793   57.4014 C.2     1  <0>         0.1700
     11 C11        -8.0124    2.8076   58.3461 C.2     1  <0>        -0.3000
     12 S12        -6.9134    3.7843   59.3163 S.3     1  <0>         0.2500
     13 C13        -5.5898    3.2621   58.3696 C.2     1  <0>         0.2400
     14 N14        -4.2724    3.6549   58.5647 N.am    1  <0>        -0.6200
     15 C15        -3.2813    3.0549   57.8763 C.2     1  <0>         0.5600
     16 O16        -3.5408    2.1708   57.0832 O.2     1  <0>        -0.5000
     17 C17        -1.8788    3.4718   58.0853 C.ar    1  <0>        -0.1400
     18 C18        -1.5767    4.4820   59.0002 C.ar    1  <0>        -0.0800
     19 C19        -0.2655    4.8660   59.1909 C.ar    1  <0>        -0.1300
     20 C20         0.7490    4.2523   58.4778 C.ar    1  <0>        -0.0800
     21 C21         0.4565    3.2508   57.5690 C.ar    1  <0>        -0.1300
     22 C22        -0.8499    2.8532   57.3730 C.ar    1  <0>        -0.0500
     23 N23        -5.9881    2.4436   57.4486 N.2     1  <0>        -0.5000
     24 C24        -7.7460    1.3364   55.0537 C.2     1  <0>         0.1300
     25 C25        -6.9357    2.3744   54.3209 C.3     1  <0>        -0.0900
     26 N26        -8.4475    0.3227   54.4610 N.pl3   1  <0>        -0.4800
     27 C27        -8.5218    0.0855   53.0172 C.3     1  <0>         0.0800
     28 H28        -9.5803   -1.0099   60.3107 H       1  <0>         0.0500
     29 H29       -10.2526   -2.5506   60.8961 H       1  <0>         0.1000
     30 H30        -8.7871   -2.5456   59.8859 H       1  <0>         0.0500
     31 H31       -11.0137   -3.0037   56.4610 H       1  <0>         0.1300
     32 H32       -10.1421   -2.0001   54.4002 H       1  <0>         0.1200
     33 H33        -9.0145   -0.0426   58.8030 H       1  <0>         0.1300
     34 H34        -9.0803    2.7269   58.4848 H       1  <0>         0.1800
     35 H35        -4.0654    4.3611   59.1966 H       1  <0>         0.4200
     36 H36        -2.3677    4.9620   59.5572 H       1  <0>         0.1300
     37 H37        -0.0304    5.6477   59.8981 H       1  <0>         0.1300
     38 H38         1.7738    4.5568   58.6308 H       1  <0>         0.1300
     39 H39         1.2530    2.7761   57.0153 H       1  <0>         0.1300
     40 H40        -1.0769    2.0710   56.6637 H       1  <0>         0.1400
     41 H41        -5.9385    1.9824   54.1210 H       1  <0>         0.0800
     42 H42        -7.4257    2.6189   53.3784 H       1  <0>         0.0700
     43 H43        -6.8570    3.2728   54.9331 H       1  <0>         0.0800
     44 H44        -7.7124   -0.5794   52.7161 H       1  <0>         0.0700
     45 H45        -9.4795   -0.3743   52.7734 H       1  <0>         0.0800
     46 H46        -8.4288    1.0339   52.4880 H       1  <0>         0.0800
@<TRIPOS>BOND
     1     1     2    1
     2     1    28    1
     3     1    29    1
     4     1    30    1
     5     2     3    1
     6     3     8   ar
     7     3     4   ar
     8     4     5   ar
     9     4    31    1
    10     5     6   ar
    11     5    32    1
    12     6    26    1
    13     6     7   ar
    14     7     8   ar
    15     7     9    1
    16     8    33    1
    17     9    10    1
    18     9    24    2
    19    10    23    1
    20    10    11    2
    21    11    12    1
    22    11    34    1
    23    12    13    1
    24    13    14    1
    25    13    23    2
    26    14    15   am
    27    14    35    1
    28    15    16    2
    29    15    17    1
    30    17    22   ar
    31    17    18   ar
    32    18    19   ar
    33    18    36    1
    34    19    20   ar
    35    19    37    1
    36    20    21   ar
    37    20    38    1
    38    21    22   ar
    39    21    39    1
    40    22    40    1
    41    24    25    1
    42    24    26    1
    43    25    41    1
    44    25    42    1
    45    25    43    1
    46    26    27    1
    47    27    44    1
    48    27    45    1
    49    27    46    1
@<TRIPOS>SUBSTRUCTURE
     1 <0>         1 TEMP              0 ****  ****    0 ROOT


##########                                Name:    ZINC000186105981
##########                DOCK_Rotatable_Bonds:                   6
##########                         Heavy_Atoms:                  26
##########                    Molecular_Weight:             396.873
##########                DOCK_Rotatable_Bonds:                   6
##########                       Formal_Charge:          -0.0400003
##########                     HBond_Acceptors:                   9
##########                        HBond_Donors:                   1
##########                         Heavy_Atoms:                  26
##########                          Grid_Score:          -27.626608
##########                     Grid_vdw_energy:          -27.011786
##########                      Grid_es_energy:           -0.614823
##########           Internal_energy_repulsive:           15.609048

@<TRIPOS>MOLECULE
ZINC000186105981
 44 46 1 0 0
SMALL
USER_CHARGES


@<TRIPOS>ATOM
      1 C1         -7.0381    2.3075   54.2062 C.3     1  ZINC000186105981   -0.1400
      2 C2         -7.0549    1.8049   55.6512 C.3     1  ZINC000186105981   -0.1100
      3 C3         -6.2098    2.7346   56.5244 C.3     1  ZINC000186105981   -0.1600
      4 C4         -8.4945    1.7883   56.1687 C.3     1  ZINC000186105981    0.1600
      5 H5         -8.9014    2.7992   56.1435 H       1  ZINC000186105981    0.1200
      6 C6         -8.5132    1.2746   57.5854 C.2     1  ZINC000186105981    0.4900
      7 O7         -7.7565    0.3872   57.9187 O.2     1  ZINC000186105981   -0.4300
      8 N8         -9.3708    1.8010   58.4819 N.am    1  ZINC000186105981   -0.6300
      9 C9         -9.3880    1.3273   59.7883 C.2     1  ZINC000186105981    0.2400
     10 N10        -9.9490    0.2251   60.1972 N.2     1  ZINC000186105981   -0.2600
     11 N11        -9.8679   -0.0542   61.4243 N.2     1  ZINC000186105981   -0.2000
     12 C12        -9.2282    0.7807   62.1944 C.2     1  ZINC000186105981    0.0300
     13 C13        -9.0209    0.6379   63.6509 C.ar    1  ZINC000186105981   -0.0500
     14 C14        -7.9948   -0.1762   64.1376 C.ar    1  ZINC000186105981    0.1300
     15 F15        -7.1881   -0.8361   63.2778 F       1  ZINC000186105981   -0.1200
     16 C16        -7.8071   -0.3042   65.5010 C.ar    1  ZINC000186105981   -0.1400
     17 C17        -8.6318    0.3712   66.3820 C.ar    1  ZINC000186105981   -0.0600
     18 C18        -9.6500    1.1786   65.9066 C.ar    1  ZINC000186105981   -0.1200
     19 C19        -9.8460    1.3208   64.5474 C.ar    1  ZINC000186105981    0.0200
     20 Cl20      -11.1239    2.3350   63.9540 Cl      1  ZINC000186105981   -0.0100
     21 S21        -8.6471    2.1079   61.1868 S.3     1  ZINC000186105981    0.1200
     22 N22        -9.3081    0.9131   55.3212 N.am    1  ZINC000186105981   -0.6100
     23 C23        -9.4867   -0.5260   55.5474 C.3     1  ZINC000186105981    0.1000
     24 C24       -10.7239   -0.9240   54.7124 C.3     1  ZINC000186105981   -0.1300
     25 C25       -10.7229    0.1607   53.6105 C.3     1  ZINC000186105981   -0.1600
     26 C26        -9.9916    1.3259   54.2398 C.2     1  ZINC000186105981    0.5200
     27 O27       -10.0128    2.4653   53.8249 O.2     1  ZINC000186105981   -0.5000
     28 H28        -6.0124    2.3194   53.8376 H       1  ZINC000186105981    0.0600
     29 H29        -7.6402    1.6453   53.5842 H       1  ZINC000186105981    0.0600
     30 H30        -7.4498    3.3161   54.1675 H       1  ZINC000186105981    0.0600
     31 H31        -6.6431    0.7964   55.6899 H       1  ZINC000186105981    0.0900
     32 H32        -6.6738    3.7202   56.5609 H       1  ZINC000186105981    0.0600
     33 H33        -6.1445    2.3261   57.5328 H       1  ZINC000186105981    0.0600
     34 H34        -5.2087    2.8198   56.1015 H       1  ZINC000186105981    0.0700
     35 H35        -9.9759    2.5108   58.2153 H       1  ZINC000186105981    0.4200
     36 H36        -7.0148   -0.9332   65.8791 H       1  ZINC000186105981    0.1500
     37 H37        -8.4806    0.2677   67.4463 H       1  ZINC000186105981    0.1500
     38 H38       -10.2903    1.7027   66.6008 H       1  ZINC000186105981    0.1500
     39 H39        -8.6085   -1.0735   55.2050 H       1  ZINC000186105981    0.0700
     40 H40        -9.6659   -0.7223   56.6045 H       1  ZINC000186105981    0.0800
     41 H41       -10.6007   -1.9177   54.2817 H       1  ZINC000186105981    0.0900
     42 H42       -11.6327   -0.8703   55.3119 H       1  ZINC000186105981    0.0800
     43 H43       -10.1936   -0.1942   52.7262 H       1  ZINC000186105981    0.1100
     44 H44       -11.7435    0.4471   53.3562 H       1  ZINC000186105981    0.1000
@<TRIPOS>BOND
     1     1     2    1
     2     1    28    1
     3     1    29    1
     4     1    30    1
     5     2     3    1
     6     2     4    1
     7     2    31    1
     8     3    32    1
     9     3    33    1
    10     3    34    1
    11     4     5    1
    12     4     6    1
    13     4    22    1
    14     6     7    2
    15     6     8   am
    16     8     9    1
    17     8    35    1
    18     9    21    1
    19     9    10    2
    20    10    11    1
    21    11    12    2
    22    12    13    1
    23    12    21    1
    24    13    19   ar
    25    13    14   ar
    26    14    15    1
    27    14    16   ar
    28    16    17   ar
    29    16    36    1
    30    17    18   ar
    31    17    37    1
    32    18    19   ar
    33    18    38    1
    34    19    20    1
    35    22    26   am
    36    22    23    1
    37    23    24    1
    38    23    39    1
    39    23    40    1
    40    24    25    1
    41    24    41    1
    42    24    42    1
    43    25    26    1
    44    25    43    1
    45    25    44    1
    46    26    27    2
@<TRIPOS>SUBSTRUCTURE
     1 ZINC000186105981        1 TEMP              0 ****  ****    0 ROOT


##########                                Name:    ZINC001456607258
##########                DOCK_Rotatable_Bonds:                   9
##########                         Heavy_Atoms:                  25
##########                    Molecular_Weight:             339.437
##########                DOCK_Rotatable_Bonds:                   9
##########                       Formal_Charge:          -0.0200009
##########                     HBond_Acceptors:                   5
##########                        HBond_Donors:                   2
##########                         Heavy_Atoms:                  25
##########                          Grid_Score:          -27.626583
##########                     Grid_vdw_energy:          -23.958126
##########                      Grid_es_energy:           -3.668457
##########           Internal_energy_repulsive:           20.050028

@<TRIPOS>MOLECULE
ZINC001456607258
 50 52 1 0 0
SMALL
USER_CHARGES


@<TRIPOS>ATOM
      1 C1         -8.2343    1.1494   58.4011 C.3     1  ZINC001456607258   -0.1600
      2 C2         -9.4824    1.2698   57.5244 C.3     1  ZINC001456607258   -0.1100
      3 C3         -9.5977    0.0345   56.6289 C.3     1  ZINC001456607258   -0.1000
      4 H4         -8.6014   -0.3487   56.4085 H       1  ZINC001456607258    0.0900
      5 C5        -10.2983    0.4148   55.3230 C.3     1  ZINC001456607258   -0.0700
      6 C6         -9.2885    0.4574   54.2052 C.ar    1  ZINC001456607258   -0.0800
      7 C7         -9.1788   -0.6084   53.3318 C.ar    1  ZINC001456607258   -0.1200
      8 C8         -8.2525   -0.5693   52.3065 C.ar    1  ZINC001456607258   -0.1200
      9 C9         -7.4360    0.5358   52.1544 C.ar    1  ZINC001456607258   -0.1200
     10 C10        -7.5463    1.6020   53.0273 C.ar    1  ZINC001456607258   -0.1200
     11 C11        -8.4756    1.5648   54.0499 C.ar    1  ZINC001456607258   -0.1200
     12 C12       -10.3988   -1.0269   57.3381 C.2     1  ZINC001456607258    0.5200
     13 O13        -9.9026   -2.1096   57.5667 O.2     1  ZINC001456607258   -0.5300
     14 N14       -11.6667   -0.7729   57.7182 N.am    1  ZINC001456607258   -0.7300
     15 C15       -12.4454   -1.8047   58.4075 C.3     1  ZINC001456607258    0.1300
     16 C16       -12.6296   -1.4099   59.8741 C.3     1  ZINC001456607258   -0.1400
     17 C17       -11.5000   -0.5196   60.4229 C.3     1  ZINC001456607258    0.1100
     18 N18       -12.5682    0.2568   61.0819 N.am    1  ZINC001456607258   -0.6500
     19 C19       -12.6236    1.0561   62.1657 C.2     1  ZINC001456607258    0.6100
     20 O20       -13.6751    1.5786   62.4828 O.2     1  ZINC001456607258   -0.5400
     21 C21       -11.4110    1.2966   62.9659 C.2     1  ZINC001456607258   -0.2300
     22 C22       -10.1178    1.0549   62.5917 C.2     1  ZINC001456607258    0.0400
     23 N23        -9.3080    1.4108   63.6069 N.pl3   1  ZINC001456607258   -0.5500
     24 C24       -10.0425    1.8867   64.6538 C.2     1  ZINC001456607258   -0.0200
     25 C25       -11.3455    1.8499   64.3228 C.2     1  ZINC001456607258   -0.1400
     26 C26       -13.5512   -0.1937   60.0776 C.3     1  ZINC001456607258    0.1100
     27 H27        -8.1015    2.0684   58.9722 H       1  ZINC001456607258    0.0600
     28 H28        -8.3509    0.3096   59.0860 H       1  ZINC001456607258    0.0600
     29 H29        -7.3612    0.9849   57.7696 H       1  ZINC001456607258    0.0600
     30 H30       -10.3661    1.3427   58.1584 H       1  ZINC001456607258    0.0800
     31 H31        -9.4058    2.1626   56.9038 H       1  ZINC001456607258    0.0700
     32 H32       -11.0643   -0.3256   55.0927 H       1  ZINC001456607258    0.0800
     33 H33       -10.7617    1.3955   55.4315 H       1  ZINC001456607258    0.0900
     34 H34        -9.8167   -1.4718   53.4506 H       1  ZINC001456607258    0.1200
     35 H35        -8.1664   -1.4023   51.6245 H       1  ZINC001456607258    0.1200
     36 H36        -6.7118    0.5660   51.3538 H       1  ZINC001456607258    0.1200
     37 H37        -6.9082    2.4652   52.9086 H       1  ZINC001456607258    0.1200
     38 H38        -8.5618    2.3978   54.7319 H       1  ZINC001456607258    0.1200
     39 H39       -12.0635    0.0931   57.5353 H       1  ZINC001456607258    0.4000
     40 H40       -13.4214   -1.9016   57.9320 H       1  ZINC001456607258    0.0700
     41 H41       -11.9176   -2.7567   58.3510 H       1  ZINC001456607258    0.0800
     42 H42       -12.8734   -2.2573   60.5149 H       1  ZINC001456607258    0.1100
     43 H43       -10.8358   -1.0317   61.1191 H       1  ZINC001456607258    0.0800
     44 H44       -10.9646    0.0356   59.6527 H       1  ZINC001456607258    0.0900
     45 H45        -9.8003    0.6475   61.6432 H       1  ZINC001456607258    0.1700
     46 H46        -8.3407    1.3387   63.5958 H       1  ZINC001456607258    0.4200
     47 H47        -9.6425    2.2401   65.5926 H       1  ZINC001456607258    0.1700
     48 H48       -12.1784    2.1589   64.9369 H       1  ZINC001456607258    0.1500
     49 H49       -13.6184    0.4573   59.2058 H       1  ZINC001456607258    0.0900
     50 H50       -14.5248   -0.4456   60.4980 H       1  ZINC001456607258    0.0900
@<TRIPOS>BOND
     1     1     2    1
     2     1    27    1
     3     1    28    1
     4     1    29    1
     5     2     3    1
     6     2    30    1
     7     2    31    1
     8     3     4    1
     9     3     5    1
    10     3    12    1
    11     5     6    1
    12     5    32    1
    13     5    33    1
    14     6    11   ar
    15     6     7   ar
    16     7     8   ar
    17     7    34    1
    18     8     9   ar
    19     8    35    1
    20     9    10   ar
    21     9    36    1
    22    10    11   ar
    23    10    37    1
    24    11    38    1
    25    12    13    2
    26    12    14   am
    27    14    15    1
    28    14    39    1
    29    15    16    1
    30    15    40    1
    31    15    41    1
    32    16    26    1
    33    16    17    1
    34    16    42    1
    35    17    18    1
    36    17    43    1
    37    17    44    1
    38    18    19   am
    39    18    26    1
    40    19    20    2
    41    19    21    1
    42    21    25    1
    43    21    22    2
    44    22    23    1
    45    22    45    1
    46    23    24    1
    47    23    46    1
    48    24    25    2
    49    24    47    1
    50    25    48    1
    51    26    49    1
    52    26    50    1
@<TRIPOS>SUBSTRUCTURE
     1 ZINC001456607258        1 TEMP              0 ****  ****    0 ROOT


##########                                Name:    ZINC000496437542
##########                DOCK_Rotatable_Bonds:                   7
##########                         Heavy_Atoms:                  24
##########                    Molecular_Weight:             338.447
##########                DOCK_Rotatable_Bonds:                   7
##########                       Formal_Charge:           0.0400002
##########                     HBond_Acceptors:                   6
##########                        HBond_Donors:                   1
##########                         Heavy_Atoms:                  24
##########                          Grid_Score:          -27.617552
##########                     Grid_vdw_energy:          -26.325899
##########                      Grid_es_energy:           -1.291653
##########           Internal_energy_repulsive:           14.802913

@<TRIPOS>MOLECULE
ZINC000496437542
 54 55 1 0 0
SMALL
USER_CHARGES


@<TRIPOS>ATOM
      1 C1        -10.1932    1.9449   61.7185 C.3     1  ZINC000496437542   -0.1800
      2 C2         -9.6255    1.1732   60.5254 C.3     1  ZINC000496437542    0.1400
      3 C3         -8.5594    2.0219   59.8297 C.3     1  ZINC000496437542   -0.1800
      4 C4         -8.9978   -0.1333   61.0152 C.3     1  ZINC000496437542   -0.1400
      5 O5        -10.6943    0.8755   59.5889 O.3     1  ZINC000496437542   -0.3600
      6 C6        -11.4590   -0.2001   59.8557 C.2     1  ZINC000496437542    0.6600
      7 O7        -12.2366   -0.1761   60.7891 O.2     1  ZINC000496437542   -0.5600
      8 N8        -11.3618   -1.3033   59.0876 N.am    1  ZINC000496437542   -0.6000
      9 C9        -12.1871   -2.4908   59.3598 C.3     1  ZINC000496437542    0.0800
     10 C10       -12.8705   -2.9142   58.0546 C.3     1  ZINC000496437542    0.0500
     11 O11       -11.8839   -3.0483   57.0287 O.3     1  ZINC000496437542   -0.3700
     12 C12       -11.1970   -1.8344   56.7151 C.3     1  ZINC000496437542    0.0700
     13 H13       -11.9191   -1.0737   56.4183 H       1  ZINC000496437542    0.0700
     14 C14       -10.2168   -2.0838   55.5671 C.3     1  ZINC000496437542    0.1300
     15 N15        -9.4137   -0.8798   55.3403 N.am    1  ZINC000496437542   -0.7200
     16 C16        -9.0137   -0.5615   54.0932 C.2     1  ZINC000496437542    0.5600
     17 O17        -9.3206   -1.2732   53.1560 O.2     1  ZINC000496437542   -0.5400
     18 C18        -8.2058    0.6466   53.8656 C.2     1  ZINC000496437542   -0.1900
     19 C19        -7.2228    0.6220   52.9918 C.2     1  ZINC000496437542   -0.0600
     20 C20        -6.3846    1.8596   52.7501 C.3     1  ZINC000496437542   -0.1000
     21 C21        -7.2332    2.8824   51.9915 C.3     1  ZINC000496437542   -0.1100
     22 C22        -8.0594    3.7169   52.9530 C.3     1  ZINC000496437542   -0.1200
     23 C23        -9.1345    2.9302   53.6804 C.3     1  ZINC000496437542   -0.1200
     24 C24        -8.5134    1.9146   54.6338 C.3     1  ZINC000496437542   -0.0800
     25 C25       -10.4320   -1.3536   57.9482 C.3     1  ZINC000496437542    0.1000
     26 H26       -10.6403    2.8757   61.3697 H       1  ZINC000496437542    0.0900
     27 H27       -10.9526    1.3403   62.2141 H       1  ZINC000496437542    0.0600
     28 H28        -9.3908    2.1684   62.4216 H       1  ZINC000496437542    0.0700
     29 H29        -7.7571    2.2454   60.5329 H       1  ZINC000496437542    0.0700
     30 H30        -8.1549    1.4721   58.9799 H       1  ZINC000496437542    0.0600
     31 H31        -9.0066    2.9527   59.4809 H       1  ZINC000496437542    0.0900
     32 H32        -9.7574   -0.7380   61.5108 H       1  ZINC000496437542    0.0700
     33 H33        -8.5935   -0.6831   60.1653 H       1  ZINC000496437542    0.0700
     34 H34        -8.1955    0.0902   61.7183 H       1  ZINC000496437542    0.0800
     35 H35       -11.5554   -3.3014   59.7232 H       1  ZINC000496437542    0.0800
     36 H36       -12.9421   -2.2495   60.1081 H       1  ZINC000496437542    0.1000
     37 H37       -13.3754   -3.8691   58.2011 H       1  ZINC000496437542    0.1100
     38 H38       -13.5987   -2.1575   57.7628 H       1  ZINC000496437542    0.0600
     39 H39        -9.5604   -2.9153   55.8240 H       1  ZINC000496437542    0.0900
     40 H40       -10.7723   -2.3261   54.6611 H       1  ZINC000496437542    0.0800
     41 H41        -9.1700   -0.3115   56.0876 H       1  ZINC000496437542    0.4000
     42 H42        -7.0124   -0.2851   52.4446 H       1  ZINC000496437542    0.1300
     43 H43        -6.0702    2.2809   53.7050 H       1  ZINC000496437542    0.0800
     44 H44        -5.5087    1.5982   52.1564 H       1  ZINC000496437542    0.0800
     45 H45        -6.5774    3.5387   51.4194 H       1  ZINC000496437542    0.0700
     46 H46        -7.9003    2.3581   51.3072 H       1  ZINC000496437542    0.0700
     47 H47        -7.3915    4.1588   53.6924 H       1  ZINC000496437542    0.0600
     48 H48        -8.5359    4.5221   52.3939 H       1  ZINC000496437542    0.0600
     49 H49        -9.7610    3.6187   54.2475 H       1  ZINC000496437542    0.0700
     50 H50        -9.7501    2.4046   52.9505 H       1  ZINC000496437542    0.0600
     51 H51        -9.2135    1.6930   55.4394 H       1  ZINC000496437542    0.0700
     52 H52        -7.5900    2.3189   55.0486 H       1  ZINC000496437542    0.0800
     53 H53       -10.0227   -0.3606   57.7623 H       1  ZINC000496437542    0.1100
     54 H54        -9.6228   -2.0487   58.1723 H       1  ZINC000496437542    0.0900
@<TRIPOS>BOND
     1     1     2    1
     2     1    26    1
     3     1    27    1
     4     1    28    1
     5     2     3    1
     6     2     4    1
     7     2     5    1
     8     3    29    1
     9     3    30    1
    10     3    31    1
    11     4    32    1
    12     4    33    1
    13     4    34    1
    14     5     6    1
    15     6     7    2
    16     6     8   am
    17     8    25    1
    18     8     9    1
    19     9    10    1
    20     9    35    1
    21     9    36    1
    22    10    11    1
    23    10    37    1
    24    10    38    1
    25    11    12    1
    26    12    13    1
    27    12    14    1
    28    12    25    1
    29    14    15    1
    30    14    39    1
    31    14    40    1
    32    15    16   am
    33    15    41    1
    34    16    17    2
    35    16    18    1
    36    18    24    1
    37    18    19    2
    38    19    20    1
    39    19    42    1
    40    20    21    1
    41    20    43    1
    42    20    44    1
    43    21    22    1
    44    21    45    1
    45    21    46    1
    46    22    23    1
    47    22    47    1
    48    22    48    1
    49    23    24    1
    50    23    49    1
    51    23    50    1
    52    24    51    1
    53    24    52    1
    54    25    53    1
    55    25    54    1
@<TRIPOS>SUBSTRUCTURE
     1 ZINC000496437542        1 TEMP              0 ****  ****    0 ROOT


##########                                Name:    ZINC001211202056
##########                DOCK_Rotatable_Bonds:                   4
##########                         Heavy_Atoms:                  23
##########                    Molecular_Weight:             386.181
##########                DOCK_Rotatable_Bonds:                   4
##########                       Formal_Charge:           0.0199999
##########                     HBond_Acceptors:                  11
##########                        HBond_Donors:                   3
##########                         Heavy_Atoms:                  23
##########                          Grid_Score:          -27.615931
##########                     Grid_vdw_energy:          -26.385874
##########                      Grid_es_energy:           -1.230057
##########           Internal_energy_repulsive:            6.166061

@<TRIPOS>MOLECULE
ZINC001211202056
 31 32 1 0 0
SMALL
USER_CHARGES


@<TRIPOS>ATOM
      1 N1         -9.5583    3.0042   63.7449 N.pl3   1  ZINC001211202056   -0.8500
      2 C2         -9.3076    2.1596   62.6601 C.ar    1  ZINC001211202056    0.2900
      3 C3         -9.3393    2.6612   61.3659 C.ar    1  ZINC001211202056   -0.2000
      4 C4         -9.0912    1.8236   60.2955 C.ar    1  ZINC001211202056    0.0400
      5 C5         -8.8117    0.4870   60.5114 C.ar    1  ZINC001211202056   -0.7300
      6 S6         -8.4959   -0.5771   59.1430 S.o2    1  ZINC001211202056    2.6900
      7 O7         -7.4251    0.0103   58.4166 O.2     1  ZINC001211202056   -0.9400
      8 O8         -8.4489   -1.8981   59.6645 O.2     1  ZINC001211202056   -0.9300
      9 N9         -9.8229   -0.5115   58.1546 N.am    1  ZINC001211202056   -1.0500
     10 C10       -11.0763   -0.8942   58.6408 C.ar    1  ZINC001211202056    0.1600
     11 C11       -11.8253   -0.0227   59.4262 C.ar    1  ZINC001211202056   -0.1200
     12 C12       -13.0625   -0.4472   59.8846 C.ar    1  ZINC001211202056   -0.0800
     13 C13       -13.5093   -1.7112   59.5504 C.ar    1  ZINC001211202056    0.0400
     14 C14       -14.8537   -2.1788   60.0457 C.3     1  ZINC001211202056    0.5300
     15 F15       -15.1897   -1.4813   61.2109 F       1  ZINC001211202056   -0.1700
     16 F16       -15.8213   -1.9401   59.0638 F       1  ZINC001211202056   -0.1600
     17 F17       -14.7981   -3.5491   60.3220 F       1  ZINC001211202056   -0.1700
     18 N18       -12.7763   -2.5145   58.8036 N.ar    1  ZINC001211202056   -0.4100
     19 C19       -11.5961   -2.1492   58.3426 C.ar    1  ZINC001211202056    0.1600
     20 Cl20      -10.6771   -3.2499   57.3639 Cl      1  ZINC001211202056    0.0000
     21 C21        -8.7792   -0.0169   61.7992 C.ar    1  ZINC001211202056    0.0400
     22 C22        -9.0203    0.8164   62.8746 C.ar    1  ZINC001211202056   -0.1400
     23 Cl23       -8.9794    0.1836   64.4907 Cl      1  ZINC001211202056   -0.0500
     24 H24        -9.5319    2.6534   64.6489 H       1  ZINC001211202056    0.4100
     25 H25        -9.7546    3.9420   63.5941 H       1  ZINC001211202056    0.4100
     26 H26        -9.5581    3.7050   61.1959 H       1  ZINC001211202056    0.1400
     27 H27        -9.1157    2.2135   59.2886 H       1  ZINC001211202056    0.1500
     28 H28        -9.7304   -0.2076   57.2381 H       1  ZINC001211202056    0.4400
     29 H29       -11.4514    0.9601   59.6726 H       1  ZINC001211202056    0.2000
     30 H30       -13.6704    0.2027   60.4965 H       1  ZINC001211202056    0.1700
     31 H31        -8.5606   -1.0615   61.9643 H       1  ZINC001211202056    0.1500
@<TRIPOS>BOND
     1     1     2    1
     2     1    24    1
     3     1    25    1
     4     2    22   ar
     5     2     3   ar
     6     3     4   ar
     7     3    26    1
     8     4     5   ar
     9     4    27    1
    10     5     6    1
    11     5    21   ar
    12     6     7    2
    13     6     8    2
    14     6     9   am
    15     9    10    1
    16     9    28    1
    17    10    19   ar
    18    10    11   ar
    19    11    12   ar
    20    11    29    1
    21    12    13   ar
    22    12    30    1
    23    13    14    1
    24    13    18   ar
    25    14    15    1
    26    14    16    1
    27    14    17    1
    28    18    19   ar
    29    19    20    1
    30    21    22   ar
    31    21    31    1
    32    22    23    1
@<TRIPOS>SUBSTRUCTURE
     1 ZINC001211202056        1 TEMP              0 ****  ****    0 ROOT


##########                                Name:    ZINC000493443319
##########                DOCK_Rotatable_Bonds:                   6
##########                         Heavy_Atoms:                  25
##########                    Molecular_Weight:             348.399
##########                DOCK_Rotatable_Bonds:                   6
##########                       Formal_Charge:        -3.27826e-07
##########                     HBond_Acceptors:                   7
##########                        HBond_Donors:                   0
##########                         Heavy_Atoms:                  25
##########                          Grid_Score:          -27.609041
##########                     Grid_vdw_energy:          -25.782881
##########                      Grid_es_energy:           -1.826160
##########           Internal_energy_repulsive:           88.622169

@<TRIPOS>MOLECULE
ZINC000493443319
 49 51 1 0 0
SMALL
USER_CHARGES


@<TRIPOS>ATOM
      1 C1         -8.5832   -0.0622   65.4904 C.3     1  <0>        -0.1500
      2 C2         -9.1129    0.5406   64.1878 C.3     1  <0>         0.0500
      3 O3         -8.5705   -0.1752   63.0764 O.3     1  <0>        -0.3200
      4 C4         -8.9402    0.2394   61.8352 C.ar    1  <0>         0.1000
      5 C5         -8.5682   -0.4955   60.7192 C.ar    1  <0>        -0.1700
      6 C6         -8.9437   -0.0744   59.4583 C.ar    1  <0>        -0.1100
      7 C7         -9.6930    1.0831   59.3083 C.ar    1  <0>         0.0800
      8 O8        -10.0624    1.4978   58.0670 O.3     1  <0>        -0.3000
      9 C9        -10.4463    0.4868   57.1329 C.3     1  <0>         0.1000
     10 C10       -11.5594    1.0228   56.2301 C.3     1  <0>        -0.1800
     11 C11        -9.2389    0.0977   56.2775 C.3     1  <0>        -0.1500
     12 C12       -10.9443   -0.7239   57.8794 C.2     1  <0>         0.5100
     13 O13       -10.4829   -1.8188   57.6356 O.2     1  <0>        -0.5200
     14 N14       -11.9023   -0.5900   58.8178 N.am    1  <0>        -0.6000
     15 C15       -12.4627    0.7341   59.1152 C.3     1  <0>         0.0700
     16 C16       -13.9876    0.6872   58.9277 C.3     1  <0>         0.1300
     17 N17       -14.4747   -0.5286   59.5941 N.am    1  <0>        -0.6300
     18 C18       -15.4338   -0.6408   60.5145 C.2     1  <0>         0.6500
     19 O19       -16.1734    0.2739   60.8195 O.2     1  <0>        -0.5200
     20 O20       -15.5039   -1.8576   61.0709 O.3     1  <0>        -0.3200
     21 C21       -14.5441   -2.7443   60.4233 C.3     1  <0>         0.0500
     22 C22       -13.9061   -1.8686   59.3327 C.3     1  <0>         0.0800
     23 H23       -14.1589   -2.2247   58.3340 H       1  <0>         0.1100
     24 C24       -12.3948   -1.7708   59.5437 C.3     1  <0>         0.1000
     25 C25       -10.0662    1.8171   60.4244 C.ar    1  <0>        -0.1800
     26 C26        -9.6940    1.3939   61.6855 C.ar    1  <0>        -0.1100
     27 H27        -8.9969    0.4837   66.3382 H       1  <0>         0.0800
     28 H28        -8.8795   -1.1093   65.5531 H       1  <0>         0.0700
     29 H29        -7.4957    0.0093   65.5079 H       1  <0>         0.0700
     30 H30       -10.2005    0.4691   64.1703 H       1  <0>         0.0600
     31 H31        -8.8167    1.5877   64.1252 H       1  <0>         0.0600
     32 H32        -7.9847   -1.3967   60.8361 H       1  <0>         0.1400
     33 H33        -8.6534   -0.6462   58.5893 H       1  <0>         0.1400
     34 H34       -11.1622    1.8142   55.5946 H       1  <0>         0.0800
     35 H35       -11.9427    0.2146   55.6072 H       1  <0>         0.0900
     36 H36       -12.3660    1.4213   56.8455 H       1  <0>         0.0800
     37 H37        -8.4150   -0.1999   56.9262 H       1  <0>         0.0800
     38 H38        -9.5077   -0.7342   55.6266 H       1  <0>         0.0900
     39 H39        -8.9338    0.9500   55.6705 H       1  <0>         0.0900
     40 H40       -12.2301    1.0055   60.1448 H       1  <0>         0.0800
     41 H41       -12.0345    1.4719   58.4367 H       1  <0>         0.1300
     42 H42       -14.4440    1.5668   59.3820 H       1  <0>         0.1100
     43 H43       -14.2296    0.6499   57.8656 H       1  <0>         0.0800
     44 H44       -13.7897   -3.0769   61.1361 H       1  <0>         0.1100
     45 H45       -15.0535   -3.5989   59.9778 H       1  <0>         0.1100
     46 H46       -11.9105   -2.6681   59.1585 H       1  <0>         0.1100
     47 H47       -12.1777   -1.6618   60.6064 H       1  <0>         0.0800
     48 H48       -10.6501    2.7182   60.3076 H       1  <0>         0.1600
     49 H49        -9.9846    1.9656   62.5545 H       1  <0>         0.1300
@<TRIPOS>BOND
     1     1     2    1
     2     1    27    1
     3     1    28    1
     4     1    29    1
     5     2     3    1
     6     2    30    1
     7     2    31    1
     8     3     4    1
     9     4    26   ar
    10     4     5   ar
    11     5     6   ar
    12     5    32    1
    13     6     7   ar
    14     6    33    1
    15     7     8    1
    16     7    25   ar
    17     8     9    1
    18     9    10    1
    19     9    11    1
    20     9    12    1
    21    10    34    1
    22    10    35    1
    23    10    36    1
    24    11    37    1
    25    11    38    1
    26    11    39    1
    27    12    13    2
    28    12    14   am
    29    14    24    1
    30    14    15    1
    31    15    16    1
    32    15    40    1
    33    15    41    1
    34    16    17    1
    35    16    42    1
    36    16    43    1
    37    17    22    1
    38    17    18   am
    39    18    19    2
    40    18    20    1
    41    20    21    1
    42    21    22    1
    43    21    44    1
    44    21    45    1
    45    22    23    1
    46    22    24    1
    47    24    46    1
    48    24    47    1
    49    25    26   ar
    50    25    48    1
    51    26    49    1
@<TRIPOS>SUBSTRUCTURE
     1 <0>         1 TEMP              0 ****  ****    0 ROOT


##########                                Name:    ZINC000989658617
##########                DOCK_Rotatable_Bonds:                   6
##########                         Heavy_Atoms:                  24
##########                    Molecular_Weight:             334.418
##########                DOCK_Rotatable_Bonds:                   6
##########                       Formal_Charge:          -0.0100001
##########                     HBond_Acceptors:                   7
##########                        HBond_Donors:                   2
##########                         Heavy_Atoms:                  24
##########                          Grid_Score:          -27.598354
##########                     Grid_vdw_energy:          -26.340664
##########                      Grid_es_energy:           -1.257691
##########           Internal_energy_repulsive:           11.371828

@<TRIPOS>MOLECULE
ZINC000989658617
 50 52 1 0 0
SMALL
USER_CHARGES


@<TRIPOS>ATOM
      1 C1         -4.6052    1.9975   51.4464 C.3     1  ZINC000989658617    0.0300
      2 O2         -5.6405    2.9807   51.3850 O.3     1  ZINC000989658617   -0.3700
      3 C3         -6.9102    2.4635   50.9819 C.3     1  ZINC000989658617    0.0500
      4 C4         -7.3288    1.3670   51.9272 C.2     1  ZINC000989658617    0.5300
      5 O5         -7.0938    0.2088   51.6545 O.2     1  ZINC000989658617   -0.5100
      6 N6         -7.9642    1.6734   53.0755 N.am    1  ZINC000989658617   -0.6200
      7 C7         -8.3111    3.0325   53.5293 C.3     1  ZINC000989658617    0.1000
      8 C8         -8.4287    2.9184   55.0697 C.3     1  ZINC000989658617   -0.1500
      9 C9         -9.0705    1.5149   55.2299 C.3     1  ZINC000989658617    0.1400
     10 H10       -10.1519    1.5687   55.1044 H       1  ZINC000989658617    0.1100
     11 N11        -8.7299    0.9348   56.5313 N.am    1  ZINC000989658617   -0.7100
     12 C12        -9.4370    1.2756   57.6269 C.2     1  ZINC000989658617    0.6100
     13 O13       -10.3565    2.0655   57.5355 O.2     1  ZINC000989658617   -0.5200
     14 C14        -9.0948    0.6893   58.9387 C.2     1  ZINC000989658617   -0.0100
     15 N15        -8.4246   -0.4302   59.1528 N.2     1  ZINC000989658617   -0.2600
     16 N16        -8.3061   -0.6415   60.4183 N.pl3   1  ZINC000989658617   -0.3700
     17 C17        -8.9014    0.3458   61.1075 C.2     1  ZINC000989658617    0.0100
     18 C18        -9.4127    1.2156   60.2019 C.2     1  ZINC000989658617   -0.1400
     19 C19       -10.1683    2.4678   60.5522 C.3     1  ZINC000989658617   -0.0400
     20 C20       -10.6029    2.3729   62.0211 C.3     1  ZINC000989658617   -0.0900
     21 H21       -11.3846    1.6199   62.1206 H       1  ZINC000989658617    0.0700
     22 C22       -11.1399    3.7292   62.4825 C.3     1  ZINC000989658617   -0.1500
     23 C23        -9.4020    1.9791   62.8853 C.3     1  ZINC000989658617   -0.1100
     24 C24        -9.0128    0.5243   62.5998 C.3     1  ZINC000989658617   -0.0500
     25 C25        -8.4321    0.7073   54.0802 C.3     1  ZINC000989658617    0.1300
     26 H26        -7.5860    0.1322   54.4563 H       1  ZINC000989658617    0.0800
     27 C27        -9.4701   -0.2349   53.4672 C.3     1  ZINC000989658617   -0.1600
     28 H28        -4.8802    1.2247   52.1642 H       1  ZINC000989658617    0.0500
     29 H29        -4.4718    1.5484   50.4622 H       1  ZINC000989658617    0.0400
     30 H30        -3.6740    2.4696   51.7596 H       1  ZINC000989658617    0.0900
     31 H31        -7.6509    3.2627   51.0017 H       1  ZINC000989658617    0.0800
     32 H32        -6.8349    2.0626   49.9711 H       1  ZINC000989658617    0.0800
     33 H33        -7.5225    3.7352   53.2601 H       1  ZINC000989658617    0.0800
     34 H34        -9.2622    3.3452   53.0984 H       1  ZINC000989658617    0.0800
     35 H35        -7.4462    2.9548   55.5403 H       1  ZINC000989658617    0.0800
     36 H36        -9.0810    3.6944   55.4703 H       1  ZINC000989658617    0.1000
     37 H37        -7.9955    0.3053   56.6045 H       1  ZINC000989658617    0.4100
     38 H38        -7.8533   -1.4020   60.8150 H       1  ZINC000989658617    0.4500
     39 H39        -9.5239    3.3362   60.4150 H       1  ZINC000989658617    0.0800
     40 H40       -11.0472    2.5573   59.9139 H       1  ZINC000989658617    0.0800
     41 H41       -11.9953    4.0096   61.8678 H       1  ZINC000989658617    0.0600
     42 H42       -11.4487    3.6620   63.5257 H       1  ZINC000989658617    0.0600
     43 H43       -10.3584    4.4825   62.3827 H       1  ZINC000989658617    0.0600
     44 H44        -8.5588    2.6294   62.6528 H       1  ZINC000989658617    0.0700
     45 H45        -9.6623    2.0859   63.9385 H       1  ZINC000989658617    0.0800
     46 H46        -9.7808   -0.1443   62.9885 H       1  ZINC000989658617    0.0800
     47 H47        -8.0566    0.3005   63.0727 H       1  ZINC000989658617    0.0800
     48 H48       -10.3045    0.3480   53.0772 H       1  ZINC000989658617    0.0600
     49 H49        -9.0124   -0.8016   52.6564 H       1  ZINC000989658617    0.0700
     50 H50        -9.8329   -0.9224   54.2313 H       1  ZINC000989658617    0.0700
@<TRIPOS>BOND
     1     1     2    1
     2     1    28    1
     3     1    29    1
     4     1    30    1
     5     2     3    1
     6     3     4    1
     7     3    31    1
     8     3    32    1
     9     4     5    2
    10     4     6   am
    11     6    25    1
    12     6     7    1
    13     7     8    1
    14     7    33    1
    15     7    34    1
    16     8     9    1
    17     8    35    1
    18     8    36    1
    19     9    10    1
    20     9    11    1
    21     9    25    1
    22    11    12   am
    23    11    37    1
    24    12    13    2
    25    12    14    1
    26    14    18    1
    27    14    15    2
    28    15    16    1
    29    16    17    1
    30    16    38    1
    31    17    24    1
    32    17    18    2
    33    18    19    1
    34    19    20    1
    35    19    39    1
    36    19    40    1
    37    20    21    1
    38    20    22    1
    39    20    23    1
    40    22    41    1
    41    22    42    1
    42    22    43    1
    43    23    24    1
    44    23    44    1
    45    23    45    1
    46    24    46    1
    47    24    47    1
    48    25    26    1
    49    25    27    1
    50    27    48    1
    51    27    49    1
    52    27    50    1
@<TRIPOS>SUBSTRUCTURE
     1 ZINC000989658617        1 TEMP              0 ****  ****    0 ROOT


##########                                Name:    ZINC000478980774
##########                DOCK_Rotatable_Bonds:                   4
##########                         Heavy_Atoms:                  26
##########                    Molecular_Weight:             401.818
##########                DOCK_Rotatable_Bonds:                   4
##########                       Formal_Charge:          -0.0100001
##########                     HBond_Acceptors:                   9
##########                        HBond_Donors:                   1
##########                         Heavy_Atoms:                  26
##########                          Grid_Score:          -27.597191
##########                     Grid_vdw_energy:          -27.191320
##########                      Grid_es_energy:           -0.405870
##########           Internal_energy_repulsive:           11.422371

@<TRIPOS>MOLECULE
ZINC000478980774
 40 42 1 0 0
SMALL
USER_CHARGES


@<TRIPOS>ATOM
      1 C1        -10.8600   -0.8694   57.6208 C.3     1  ZINC000478980774   -0.1400
      2 C2        -10.4707    0.5974   57.8150 C.3     1  ZINC000478980774   -0.4600
      3 H3        -11.3018    1.2365   57.5168 H       1  ZINC000478980774    0.1500
      4 C4        -10.1439    0.8426   59.2655 C.2     1  ZINC000478980774    0.5400
      5 O5        -10.1558    1.9722   59.7074 O.2     1  ZINC000478980774   -0.5000
      6 N6         -9.8383   -0.1932   60.0719 N.am    1  ZINC000478980774   -0.6600
      7 C7         -9.5344    0.0348   61.4204 C.ar    1  ZINC000478980774    0.1600
      8 C8         -8.3907   -0.5202   61.9777 C.ar    1  ZINC000478980774   -0.1200
      9 C9         -8.0899   -0.2966   63.3081 C.ar    1  ZINC000478980774   -0.0600
     10 C10        -8.9284    0.4815   64.0890 C.ar    1  ZINC000478980774    0.0100
     11 O11        -8.8592    0.8466   65.4034 O.3     1  ZINC000478980774   -0.2900
     12 C12        -9.7551    1.9656   65.5390 C.3     1  ZINC000478980774    0.5700
     13 F13       -10.3709    1.9528   66.7953 F       1  ZINC000478980774   -0.1100
     14 F14        -9.0711    3.1697   65.3407 F       1  ZINC000478980774   -0.1500
     15 O15       -10.7265    1.7545   64.4975 O.3     1  ZINC000478980774   -0.2800
     16 C16       -10.0771    1.0402   63.5323 C.ar    1  ZINC000478980774    0.0500
     17 C17       -10.3745    0.8205   62.1982 C.ar    1  ZINC000478980774   -0.0900
     18 S18        -9.0193    0.9780   56.7955 S.o     1  ZINC000478980774    1.3000
     19 O19        -7.9267    0.1675   57.2058 O.2     1  ZINC000478980774   -0.7800
     20 C20        -9.5480    0.4834   55.1323 C.3     1  ZINC000478980774   -0.4300
     21 C21        -8.4321    0.7417   54.1529 C.ar    1  ZINC000478980774   -0.0600
     22 C22        -7.5297    1.7619   54.3868 C.ar    1  ZINC000478980774   -0.1100
     23 C23        -6.5059    1.9992   53.4884 C.ar    1  ZINC000478980774   -0.1100
     24 C24        -6.3846    1.2165   52.3556 C.ar    1  ZINC000478980774   -0.1100
     25 C25        -7.2866    0.1957   52.1206 C.ar    1  ZINC000478980774   -0.1100
     26 C26        -8.3075   -0.0460   53.0222 C.ar    1  ZINC000478980774   -0.0300
     27 Cl27       -9.4407   -1.3278   52.7277 Cl      1  ZINC000478980774   -0.0600
     28 H28       -11.0964   -1.0467   56.5717 H       1  ZINC000478980774    0.0800
     29 H29       -10.0288   -1.5084   57.9190 H       1  ZINC000478980774    0.0700
     30 H30       -11.7320   -1.0981   58.2334 H       1  ZINC000478980774    0.0700
     31 H31        -9.8286   -1.0964   59.7186 H       1  ZINC000478980774    0.4200
     32 H32        -7.7354   -1.1277   61.3711 H       1  ZINC000478980774    0.1500
     33 H33        -7.1996   -0.7297   63.7395 H       1  ZINC000478980774    0.1500
     34 H34       -11.2617    1.2567   61.7636 H       1  ZINC000478980774    0.1600
     35 H35        -9.7947   -0.5783   55.1301 H       1  ZINC000478980774    0.1100
     36 H36       -10.4260    1.0610   54.8433 H       1  ZINC000478980774    0.1300
     37 H37        -7.6245    2.3742   55.2714 H       1  ZINC000478980774    0.1400
     38 H38        -5.8009    2.7966   53.6716 H       1  ZINC000478980774    0.1300
     39 H39        -5.5851    1.4027   51.6538 H       1  ZINC000478980774    0.1300
     40 H40        -7.1917   -0.4158   51.2355 H       1  ZINC000478980774    0.1300
@<TRIPOS>BOND
     1     1     2    1
     2     1    28    1
     3     1    29    1
     4     1    30    1
     5     2     3    1
     6     2     4    1
     7     2    18    1
     8     4     5    2
     9     4     6   am
    10     6     7    1
    11     6    31    1
    12     7    17   ar
    13     7     8   ar
    14     8     9   ar
    15     8    32    1
    16     9    10   ar
    17     9    33    1
    18    10    16   ar
    19    10    11    1
    20    11    12    1
    21    12    13    1
    22    12    14    1
    23    12    15    1
    24    15    16    1
    25    16    17   ar
    26    17    34    1
    27    18    19    2
    28    18    20    1
    29    20    21    1
    30    20    35    1
    31    20    36    1
    32    21    26   ar
    33    21    22   ar
    34    22    23   ar
    35    22    37    1
    36    23    24   ar
    37    23    38    1
    38    24    25   ar
    39    24    39    1
    40    25    26   ar
    41    25    40    1
    42    26    27    1
@<TRIPOS>SUBSTRUCTURE
     1 ZINC000478980774        1 TEMP              0 ****  ****    0 ROOT


##########                                Name:    ZINC000329637067
##########                DOCK_Rotatable_Bonds:                   5
##########                         Heavy_Atoms:                  26
##########                    Molecular_Weight:             362.429
##########                DOCK_Rotatable_Bonds:                   5
##########                       Formal_Charge:           0.0199998
##########                     HBond_Acceptors:                   8
##########                        HBond_Donors:                   0
##########                         Heavy_Atoms:                  26
##########                          Grid_Score:          -27.565094
##########                     Grid_vdw_energy:          -26.606163
##########                      Grid_es_energy:           -0.958931
##########           Internal_energy_repulsive:           25.272902

@<TRIPOS>MOLECULE
ZINC000329637067
 52 54 1 0 0
SMALL
USER_CHARGES


@<TRIPOS>ATOM
      1 C1         -8.5590    0.0899   62.7932 C.3     1  ZINC000329637067   -0.1300
      2 C2         -9.6270    1.0359   63.2784 C.2     1  ZINC000329637067    0.2200
      3 C3         -9.7234    1.3462   64.5993 C.2     1  ZINC000329637067   -0.2900
      4 C4        -10.7246    2.2269   65.0191 C.2     1  ZINC000329637067    0.2800
      5 C5        -10.8517    2.5866   66.4770 C.3     1  ZINC000329637067   -0.1200
      6 N6        -11.5567    2.7420   64.1368 N.2     1  ZINC000329637067   -0.5500
      7 C7        -11.4571    2.4337   62.8414 C.2     1  ZINC000329637067    0.6400
      8 O8        -12.2398    2.9242   62.0451 O.2     1  ZINC000329637067   -0.5300
      9 N9        -10.5018    1.5937   62.4011 N.am    1  ZINC000329637067   -0.5000
     10 C10       -10.4126    1.2711   60.9749 C.3     1  ZINC000329637067    0.0700
     11 C11        -9.4910    2.2507   60.2949 C.2     1  ZINC000329637067    0.5100
     12 O12        -8.9355    3.1116   60.9441 O.2     1  ZINC000329637067   -0.5200
     13 N13        -9.2840    2.1701   58.9656 N.am    1  ZINC000329637067   -0.6100
     14 C14        -8.3884    3.1179   58.2887 C.3     1  ZINC000329637067    0.1000
     15 C15        -7.3441    2.3278   57.4938 C.3     1  ZINC000329637067   -0.1400
     16 C16        -8.0554    1.3533   56.5524 C.3     1  ZINC000329637067   -0.1000
     17 C17        -8.8876    0.3649   57.3724 C.3     1  ZINC000329637067   -0.1200
     18 H18        -8.2374   -0.1741   58.0616 H       1  ZINC000329637067    0.1000
     19 C19        -9.5613   -0.6149   56.4465 C.2     1  ZINC000329637067    0.5300
     20 O20        -9.7426   -0.3236   55.2833 O.2     1  ZINC000329637067   -0.5300
     21 N21        -9.9624   -1.8148   56.9112 N.am    1  ZINC000329637067   -0.6200
     22 C22        -9.7588   -2.1880   58.3200 C.3     1  ZINC000329637067    0.0800
     23 C23       -11.0917   -2.6937   58.8837 C.3     1  ZINC000329637067    0.0500
     24 O24       -11.6093   -3.7130   58.0252 O.3     1  ZINC000329637067   -0.3800
     25 C25       -11.9083   -3.2664   56.7005 C.3     1  ZINC000329637067    0.0500
     26 C26       -10.6223   -2.7878   56.0264 C.3     1  ZINC000329637067    0.0700
     27 C27        -9.9447    1.1289   58.1669 C.3     1  ZINC000329637067    0.1200
     28 H28        -7.9662    0.5773   62.0191 H       1  ZINC000329637067    0.0900
     29 H29        -7.9125   -0.1863   63.6261 H       1  ZINC000329637067    0.1000
     30 H30        -9.0259   -0.8057   62.3832 H       1  ZINC000329637067    0.0900
     31 H31        -9.0361    0.9177   65.3139 H       1  ZINC000329637067    0.1600
     32 H32       -10.2436    3.4662   66.6885 H       1  ZINC000329637067    0.1000
     33 H33       -11.8949    2.8018   66.7086 H       1  ZINC000329637067    0.0900
     34 H34       -10.5085    1.7520   67.0884 H       1  ZINC000329637067    0.0900
     35 H35       -10.0215    0.2609   60.8546 H       1  ZINC000329637067    0.1200
     36 H36       -11.4038    1.3330   60.5257 H       1  ZINC000329637067    0.1300
     37 H37        -8.9661    3.7455   57.6101 H       1  ZINC000329637067    0.0800
     38 H38        -7.8885    3.7415   59.0299 H       1  ZINC000329637067    0.0900
     39 H39        -6.7331    3.0168   56.9105 H       1  ZINC000329637067    0.0900
     40 H40        -6.7084    1.7706   58.1819 H       1  ZINC000329637067    0.0700
     41 H41        -8.7097    1.9093   55.8809 H       1  ZINC000329637067    0.0800
     42 H42        -7.3149    0.8072   55.9679 H       1  ZINC000329637067    0.0800
     43 H43        -9.0094   -2.9767   58.3863 H       1  ZINC000329637067    0.0800
     44 H44        -9.4275   -1.3175   58.8862 H       1  ZINC000329637067    0.1000
     45 H45       -10.9332   -3.1037   59.8811 H       1  ZINC000329637067    0.1100
     46 H46       -11.8012   -1.8679   58.9371 H       1  ZINC000329637067    0.0600
     47 H47       -12.3371   -4.0884   56.1272 H       1  ZINC000329637067    0.1100
     48 H48       -12.6207   -2.4428   56.7460 H       1  ZINC000329637067    0.0600
     49 H49       -10.8610   -2.3164   55.0731 H       1  ZINC000329637067    0.1000
     50 H50        -9.9571   -3.6354   55.8610 H       1  ZINC000329637067    0.0800
     51 H51       -10.4739    0.4412   58.8266 H       1  ZINC000329637067    0.1000
     52 H52       -10.6508    1.5962   57.4804 H       1  ZINC000329637067    0.0800
@<TRIPOS>BOND
     1     1     2    1
     2     1    28    1
     3     1    29    1
     4     1    30    1
     5     2     9    1
     6     2     3    2
     7     3     4    1
     8     3    31    1
     9     4     5    1
    10     4     6    2
    11     5    32    1
    12     5    33    1
    13     5    34    1
    14     6     7    1
    15     7     8    2
    16     7     9   am
    17     9    10    1
    18    10    11    1
    19    10    35    1
    20    10    36    1
    21    11    12    2
    22    11    13   am
    23    13    27    1
    24    13    14    1
    25    14    15    1
    26    14    37    1
    27    14    38    1
    28    15    16    1
    29    15    39    1
    30    15    40    1
    31    16    17    1
    32    16    41    1
    33    16    42    1
    34    17    18    1
    35    17    19    1
    36    17    27    1
    37    19    20    2
    38    19    21   am
    39    21    26    1
    40    21    22    1
    41    22    23    1
    42    22    43    1
    43    22    44    1
    44    23    24    1
    45    23    45    1
    46    23    46    1
    47    24    25    1
    48    25    26    1
    49    25    47    1
    50    25    48    1
    51    26    49    1
    52    26    50    1
    53    27    51    1
    54    27    52    1
@<TRIPOS>SUBSTRUCTURE
     1 ZINC000329637067        1 TEMP              0 ****  ****    0 ROOT


##########                                Name:    ZINC000022858610
##########                DOCK_Rotatable_Bonds:                   9
##########                         Heavy_Atoms:                  26
##########                    Molecular_Weight:             369.343
##########                DOCK_Rotatable_Bonds:                   9
##########                       Formal_Charge:          0.00999956
##########                     HBond_Acceptors:                   9
##########                        HBond_Donors:                   2
##########                         Heavy_Atoms:                  26
##########                          Grid_Score:          -27.564032
##########                     Grid_vdw_energy:          -26.908703
##########                      Grid_es_energy:           -0.655329
##########           Internal_energy_repulsive:           18.146032

@<TRIPOS>MOLECULE
ZINC000022858610
 44 45 1 0 0
SMALL
USER_CHARGES


@<TRIPOS>ATOM
      1 C1        -14.3221   -2.5229   60.2815 C.3     1  <0>         0.0100
      2 N2        -13.7428   -3.1010   59.0616 N.3     1  <0>        -0.5300
      3 C3        -14.7830   -3.7117   58.2230 C.3     1  <0>         0.0200
      4 C4        -12.9853   -2.0921   58.3092 C.3     1  <0>         0.1500
      5 H5        -13.6289   -1.2385   58.0963 H       1  <0>         0.1200
      6 C6        -12.4928   -2.6999   56.9944 C.3     1  <0>         0.1300
      7 N7        -11.4357   -1.8559   56.4319 N.am    1  <0>        -0.6800
      8 C8        -11.7571   -0.7445   55.7405 C.2     1  <0>         0.5100
      9 O9        -12.9220   -0.4421   55.5851 O.2     1  <0>        -0.5100
     10 C10       -10.6794    0.1149   55.1655 C.2     1  <0>         0.5200
     11 O11       -10.9667    1.0441   54.4394 O.2     1  <0>        -0.4900
     12 N12        -9.3877   -0.1413   55.4529 N.am    1  <0>        -0.6500
     13 C13        -8.3796    0.6629   54.9149 C.ar    1  <0>         0.1900
     14 C14        -8.1112    0.6247   53.5526 C.ar    1  <0>        -0.1200
     15 C15        -7.1139    1.4209   53.0242 C.ar    1  <0>        -0.0700
     16 C16        -6.3831    2.2553   53.8498 C.ar    1  <0>        -0.1300
     17 C17        -6.6473    2.2955   55.2069 C.ar    1  <0>        -0.0500
     18 C18        -7.6470    1.5068   55.7408 C.ar    1  <0>        -0.2100
     19 C19        -7.9342    1.5512   57.2195 C.3     1  <0>         0.5100
     20 F20        -9.2210    2.0584   57.4295 F       1  <0>        -0.1700
     21 F21        -7.8498    0.2595   57.7499 F       1  <0>        -0.1800
     22 F22        -6.9985    2.3771   57.8517 F       1  <0>        -0.1700
     23 C23       -11.8034   -1.6385   59.1268 C.2     1  <0>        -0.0500
     24 C24       -10.6443   -2.3055   59.2713 C.2     1  <0>        -0.1900
     25 C25        -9.8237   -1.5228   60.1154 C.2     1  <0>        -0.2100
     26 C26       -10.5303   -0.4242   60.4364 C.2     1  <0>        -0.0400
     27 O27       -11.7265   -0.4968   59.8301 O.3     1  <0>        -0.1700
     28 H28       -14.7144   -3.3215   60.9112 H       1  <0>         0.0700
     29 H29       -13.5520   -1.9762   60.8257 H       1  <0>         0.0700
     30 H30       -15.1298   -1.8421   60.0128 H       1  <0>         0.0500
     31 H31       -15.5120   -2.9530   57.9382 H       1  <0>         0.0300
     32 H32       -14.3268   -4.1319   57.3267 H       1  <0>         0.0700
     33 H33       -15.2820   -4.5032   58.7821 H       1  <0>         0.0800
     34 H34       -12.0991   -3.6992   57.1809 H       1  <0>         0.0900
     35 H35       -13.3219   -2.7618   56.2896 H       1  <0>         0.0800
     36 H36       -10.5045   -2.0969   56.5570 H       1  <0>         0.4200
     37 H37        -9.1581   -0.8838   56.0331 H       1  <0>         0.4300
     38 H38        -8.6815   -0.0270   52.9072 H       1  <0>         0.1500
     39 H39        -6.9045    1.3915   51.9651 H       1  <0>         0.1400
     40 H40        -5.6038    2.8768   53.4340 H       1  <0>         0.1400
     41 H41        -6.0740    2.9478   55.8489 H       1  <0>         0.1500
     42 H42       -10.3897   -3.2569   58.8279 H       1  <0>         0.1500
     43 H43        -8.8217   -1.7613   60.4406 H       1  <0>         0.1500
     44 H44       -10.1917    0.3817   61.0708 H       1  <0>         0.2000
@<TRIPOS>BOND
     1     1     2    1
     2     1    28    1
     3     1    29    1
     4     1    30    1
     5     2     3    1
     6     2     4    1
     7     3    31    1
     8     3    32    1
     9     3    33    1
    10     4     5    1
    11     4     6    1
    12     4    23    1
    13     6     7    1
    14     6    34    1
    15     6    35    1
    16     7     8   am
    17     7    36    1
    18     8     9    2
    19     8    10    1
    20    10    11    2
    21    10    12   am
    22    12    13    1
    23    12    37    1
    24    13    18   ar
    25    13    14   ar
    26    14    15   ar
    27    14    38    1
    28    15    16   ar
    29    15    39    1
    30    16    17   ar
    31    16    40    1
    32    17    18   ar
    33    17    41    1
    34    18    19    1
    35    19    20    1
    36    19    21    1
    37    19    22    1
    38    23    27    1
    39    23    24    2
    40    24    25    1
    41    24    42    1
    42    25    26    2
    43    25    43    1
    44    26    27    1
    45    26    44    1
@<TRIPOS>SUBSTRUCTURE
     1 <0>         1 TEMP              0 ****  ****    0 ROOT


##########                                Name:    ZINC000588570917
##########                DOCK_Rotatable_Bonds:                   7
##########                         Heavy_Atoms:                  25
##########                    Molecular_Weight:             366.481
##########                DOCK_Rotatable_Bonds:                   7
##########                       Formal_Charge:          -0.0100006
##########                     HBond_Acceptors:                   7
##########                        HBond_Donors:                   1
##########                         Heavy_Atoms:                  25
##########                          Grid_Score:          -27.554106
##########                     Grid_vdw_energy:          -27.291233
##########                      Grid_es_energy:           -0.262873
##########           Internal_energy_repulsive:           16.891760

@<TRIPOS>MOLECULE
ZINC000588570917
 51 52 1 0 0
SMALL
USER_CHARGES


@<TRIPOS>ATOM
      1 C1         -9.1466    4.4240   51.4276 C.3     1  ZINC000588570917   -0.1300
      2 C2         -9.6922    3.4377   52.4279 C.2     1  ZINC000588570917   -0.0500
      3 C3         -8.9009    2.4945   52.9315 C.2     1  ZINC000588570917   -0.2000
      4 C4         -7.4593    2.4111   52.5005 C.3     1  ZINC000588570917   -0.0900
      5 C5         -6.5987    3.2694   53.4296 C.3     1  ZINC000588570917   -0.1500
      6 C6         -9.4329    1.5331   53.9089 C.2     1  ZINC000588570917    0.5600
      7 O7        -10.6311    1.4674   54.1070 O.2     1  ZINC000588570917   -0.5100
      8 N8         -8.5928    0.7249   54.5851 N.am    1  ZINC000588570917   -0.6800
      9 C9         -9.0986   -0.1893   55.5145 C.ar    1  ZINC000588570917    0.2100
     10 C10        -9.1985    0.1633   56.8542 C.ar    1  ZINC000588570917   -0.1700
     11 C11        -9.6991   -0.7419   57.7694 C.ar    1  ZINC000588570917    0.0000
     12 C12       -10.1005   -1.9980   57.3532 C.ar    1  ZINC000588570917   -0.7000
     13 S13       -10.7385   -3.1498   58.5242 S.o2    1  ZINC000588570917    2.6900
     14 O14       -10.4600   -4.4437   58.0070 O.2     1  ZINC000588570917   -0.9500
     15 O15       -10.2952   -2.7112   59.8009 O.2     1  ZINC000588570917   -0.9500
     16 N16       -12.3868   -2.9898   58.5211 N.am    1  ZINC000588570917   -1.0000
     17 C17       -13.1126   -2.6038   59.7415 C.3     1  ZINC000588570917    0.0900
     18 C18       -14.0447   -1.4355   59.4006 C.3     1  ZINC000588570917    0.0700
     19 H19       -13.4506   -0.5524   59.1657 H       1  ZINC000588570917    0.0700
     20 C20       -14.9504   -1.1384   60.5974 C.3     1  ZINC000588570917   -0.1500
     21 O21       -14.8457   -1.7869   58.2699 O.3     1  ZINC000588570917   -0.3700
     22 C22       -14.0981   -2.0301   57.0759 C.3     1  ZINC000588570917    0.0800
     23 H23       -14.7824   -2.2469   56.2557 H       1  ZINC000588570917    0.1200
     24 C24       -13.2654   -0.7931   56.7335 C.3     1  ZINC000588570917   -0.1900
     25 C25       -13.1682   -3.2234   57.2964 C.3     1  ZINC000588570917    0.0900
     26 C26       -10.0028   -2.3521   56.0201 C.ar    1  ZINC000588570917    0.0000
     27 C27        -9.5077   -1.4500   55.0990 C.ar    1  ZINC000588570917   -0.1400
     28 H28        -9.9358    5.1148   51.1309 H       1  ZINC000588570917    0.0600
     29 H29        -8.3257    4.9820   51.8781 H       1  ZINC000588570917    0.0800
     30 H30        -8.7836    3.8886   50.5502 H       1  ZINC000588570917    0.0800
     31 H31       -10.7257    3.4966   52.7357 H       1  ZINC000588570917    0.1300
     32 H32        -7.1247    1.3749   52.5496 H       1  ZINC000588570917    0.0700
     33 H33        -7.3642    2.7755   51.4776 H       1  ZINC000588570917    0.0800
     34 H34        -6.6937    2.9050   54.4525 H       1  ZINC000588570917    0.0500
     35 H35        -5.5559    3.2091   53.1180 H       1  ZINC000588570917    0.0600
     36 H36        -6.9332    4.3057   53.3806 H       1  ZINC000588570917    0.0600
     37 H37        -7.6372    0.7772   54.4271 H       1  ZINC000588570917    0.4100
     38 H38        -8.8849    1.1441   57.1800 H       1  ZINC000588570917    0.1400
     39 H39        -9.7768   -0.4684   58.8113 H       1  ZINC000588570917    0.1400
     40 H40       -13.6996   -3.4485   60.1022 H       1  ZINC000588570917    0.0900
     41 H41       -12.4026   -2.2952   60.5089 H       1  ZINC000588570917    0.1000
     42 H42       -14.3382   -0.8745   61.4598 H       1  ZINC000588570917    0.0700
     43 H43       -15.6129   -0.3076   60.3544 H       1  ZINC000588570917    0.0700
     44 H44       -15.5456   -2.0213   60.8308 H       1  ZINC000588570917    0.0700
     45 H45       -12.5801   -0.5780   57.5534 H       1  ZINC000588570917    0.0600
     46 H46       -12.6957   -0.9793   55.8231 H       1  ZINC000588570917    0.0700
     47 H47       -13.9272    0.0593   56.5800 H       1  ZINC000588570917    0.0700
     48 H48       -12.4962   -3.3274   56.4445 H       1  ZINC000588570917    0.1000
     49 H49       -13.7586   -4.1324   57.4119 H       1  ZINC000588570917    0.0900
     50 H50       -10.3171   -3.3339   55.6983 H       1  ZINC000588570917    0.1400
     51 H51        -9.4320   -1.7270   54.0578 H       1  ZINC000588570917    0.1500
@<TRIPOS>BOND
     1     1     2    1
     2     1    28    1
     3     1    29    1
     4     1    30    1
     5     2     3    2
     6     2    31    1
     7     3     4    1
     8     3     6    1
     9     4     5    1
    10     4    32    1
    11     4    33    1
    12     5    34    1
    13     5    35    1
    14     5    36    1
    15     6     7    2
    16     6     8   am
    17     8     9    1
    18     8    37    1
    19     9    27   ar
    20     9    10   ar
    21    10    11   ar
    22    10    38    1
    23    11    12   ar
    24    11    39    1
    25    12    13    1
    26    12    26   ar
    27    13    14    2
    28    13    15    2
    29    13    16   am
    30    16    25    1
    31    16    17    1
    32    17    18    1
    33    17    40    1
    34    17    41    1
    35    18    19    1
    36    18    20    1
    37    18    21    1
    38    20    42    1
    39    20    43    1
    40    20    44    1
    41    21    22    1
    42    22    23    1
    43    22    24    1
    44    22    25    1
    45    24    45    1
    46    24    46    1
    47    24    47    1
    48    25    48    1
    49    25    49    1
    50    26    27   ar
    51    26    50    1
    52    27    51    1
@<TRIPOS>SUBSTRUCTURE
     1 ZINC000588570917        1 TEMP              0 ****  ****    0 ROOT


##########                                Name:    ZINC000156038173
##########                DOCK_Rotatable_Bonds:                  10
##########                         Heavy_Atoms:                  27
##########                    Molecular_Weight:             396.357
##########                DOCK_Rotatable_Bonds:                  10
##########                       Formal_Charge:         -0.00999981
##########                     HBond_Acceptors:                  10
##########                        HBond_Donors:                   1
##########                         Heavy_Atoms:                  27
##########                          Grid_Score:          -27.538723
##########                     Grid_vdw_energy:          -27.657024
##########                      Grid_es_energy:            0.118302
##########           Internal_energy_repulsive:           19.169971

@<TRIPOS>MOLECULE
ZINC000156038173
 48 48 1 0 0
SMALL
USER_CHARGES


@<TRIPOS>ATOM
      1 C1        -10.5373   -3.7251   57.7819 C.3     1  ZINC000156038173    0.0700
      2 N2        -10.7039   -2.3621   57.2717 N.am    1  ZINC000156038173   -0.6300
      3 C3        -11.2570   -1.3181   58.1381 C.3     1  ZINC000156038173    0.1500
      4 C4        -10.1355   -0.3767   58.5819 C.3     1  ZINC000156038173   -0.1400
      5 C5         -9.6172   -0.8126   59.9282 C.2     1  ZINC000156038173    0.4700
      6 O6         -8.6769   -1.5681   59.9978 O.2     1  ZINC000156038173   -0.5000
      7 O7        -10.2002   -0.3615   61.0500 O.3     1  ZINC000156038173   -0.3500
      8 C8         -9.4862    0.6558   61.8007 C.3     1  ZINC000156038173    0.1200
      9 C9         -8.5221   -0.0160   62.7806 C.3     1  ZINC000156038173   -0.1800
     10 C10        -8.6966    1.5420   60.8353 C.3     1  ZINC000156038173   -0.1400
     11 C11       -10.4874    1.5133   62.5773 C.3     1  ZINC000156038173   -0.1800
     12 C12       -10.3484   -2.0683   56.0052 C.2     1  ZINC000156038173    0.7100
     13 O13        -9.8908   -2.9350   55.2856 O.2     1  ZINC000156038173   -0.5700
     14 N14       -10.5003   -0.8139   55.5365 N.am    1  ZINC000156038173   -0.7400
     15 C15       -10.1156   -0.4949   54.1594 C.3     1  ZINC000156038173    0.1700
     16 H16        -9.7974   -1.4051   53.6509 H       1  ZINC000156038173    0.1500
     17 C17        -8.9807    0.4965   54.1716 C.ar    1  ZINC000156038173   -0.1300
     18 C18        -8.9074    1.4506   55.1689 C.ar    1  ZINC000156038173   -0.0700
     19 C19        -7.8668    2.3609   55.1816 C.ar    1  ZINC000156038173   -0.1000
     20 C20        -6.8977    2.3188   54.1970 C.ar    1  ZINC000156038173   -0.1100
     21 C21        -6.9684    1.3646   53.1969 C.ar    1  ZINC000156038173    0.0700
     22 F22        -6.0215    1.3227   52.2341 F       1  ZINC000156038173   -0.1200
     23 C23        -8.0087    0.4480   53.1875 C.ar    1  ZINC000156038173    0.1000
     24 F24        -8.0797   -0.4842   52.2122 F       1  ZINC000156038173   -0.1200
     25 C25       -11.3125    0.1092   53.4223 C.3     1  ZINC000156038173    0.4500
     26 F26       -11.1290    1.4895   53.2876 F       1  ZINC000156038173   -0.1700
     27 F27       -11.4217   -0.4726   52.1546 F       1  ZINC000156038173   -0.1600
     28 F28       -12.4814   -0.1370   54.1506 F       1  ZINC000156038173   -0.1700
     29 H29       -11.4433   -4.2991   57.5878 H       1  ZINC000156038173    0.0600
     30 H30        -9.6927   -4.1995   57.2821 H       1  ZINC000156038173    0.0700
     31 H31       -10.3518   -3.6911   58.8554 H       1  ZINC000156038173    0.0800
     32 H32       -12.0105   -0.7525   57.5899 H       1  ZINC000156038173    0.1000
     33 H33       -11.7139   -1.7777   59.0145 H       1  ZINC000156038173    0.0900
     34 H34        -9.3255   -0.4076   57.8533 H       1  ZINC000156038173    0.1100
     35 H35       -10.5216    0.6402   58.6531 H       1  ZINC000156038173    0.1100
     36 H36        -7.8089   -0.6269   62.2274 H       1  ZINC000156038173    0.0600
     37 H37        -7.9861    0.7478   63.3442 H       1  ZINC000156038173    0.0700
     38 H38        -9.0846   -0.6473   63.4684 H       1  ZINC000156038173    0.0800
     39 H39        -9.3834    2.0207   60.1371 H       1  ZINC000156038173    0.0700
     40 H40        -8.1606    2.3057   61.3988 H       1  ZINC000156038173    0.0800
     41 H41        -7.9834    0.9311   60.2819 H       1  ZINC000156038173    0.0700
     42 H42       -11.0499    0.8820   63.2651 H       1  ZINC000156038173    0.0800
     43 H43        -9.9514    2.2771   63.1409 H       1  ZINC000156038173    0.0700
     44 H44       -11.1742    1.9920   61.8792 H       1  ZINC000156038173    0.0600
     45 H45       -10.8643   -0.1222   56.1109 H       1  ZINC000156038173    0.4100
     46 H46        -9.6638    1.4853   55.9389 H       1  ZINC000156038173    0.1400
     47 H47        -7.8113    3.1060   55.9614 H       1  ZINC000156038173    0.1500
     48 H48        -6.0856    3.0307   54.2078 H       1  ZINC000156038173    0.1500
@<TRIPOS>BOND
     1     1     2    1
     2     1    29    1
     3     1    30    1
     4     1    31    1
     5     2     3    1
     6     2    12   am
     7     3     4    1
     8     3    32    1
     9     3    33    1
    10     4     5    1
    11     4    34    1
    12     4    35    1
    13     5     6    2
    14     5     7    1
    15     7     8    1
    16     8     9    1
    17     8    10    1
    18     8    11    1
    19     9    36    1
    20     9    37    1
    21     9    38    1
    22    10    39    1
    23    10    40    1
    24    10    41    1
    25    11    42    1
    26    11    43    1
    27    11    44    1
    28    12    13    2
    29    12    14   am
    30    14    15    1
    31    14    45    1
    32    15    16    1
    33    15    17    1
    34    15    25    1
    35    17    23   ar
    36    17    18   ar
    37    18    19   ar
    38    18    46    1
    39    19    20   ar
    40    19    47    1
    41    20    21   ar
    42    20    48    1
    43    21    22    1
    44    21    23   ar
    45    23    24    1
    46    25    26    1
    47    25    27    1
    48    25    28    1
@<TRIPOS>SUBSTRUCTURE
     1 ZINC000156038173        1 TEMP              0 ****  ****    0 ROOT


##########                                Name:    ZINC000175255939
##########                DOCK_Rotatable_Bonds:                   8
##########                         Heavy_Atoms:                  28
##########                    Molecular_Weight:             394.375
##########                DOCK_Rotatable_Bonds:                   8
##########                       Formal_Charge:          -0.0399999
##########                     HBond_Acceptors:                   9
##########                        HBond_Donors:                   1
##########                         Heavy_Atoms:                  28
##########                          Grid_Score:          -27.517136
##########                     Grid_vdw_energy:          -27.165419
##########                      Grid_es_energy:           -0.351717
##########           Internal_energy_repulsive:           12.440755

@<TRIPOS>MOLECULE
ZINC000175255939
 48 50 1 0 0
SMALL
USER_CHARGES


@<TRIPOS>ATOM
      1 C1         -0.4319    1.0182   61.5354 C.3     1  ZINC000175255939    0.0300
      2 O2         -0.8885    1.7363   60.3588 O.3     1  ZINC000175255939   -0.3600
      3 C3         -0.6929    3.0642   60.3413 C.2     1  ZINC000175255939    0.4600
      4 O4         -0.1583    3.6085   61.2782 O.2     1  ZINC000175255939   -0.5000
      5 C5         -1.1401    3.8760   59.1531 C.3     1  ZINC000175255939   -0.0800
      6 H6         -1.4044    4.8820   59.4791 H       1  ZINC000175255939    0.1100
      7 C7         -0.0040    3.9530   58.1311 C.3     1  ZINC000175255939   -0.1200
      8 C8         -0.4582    4.7772   56.9248 C.3     1  ZINC000175255939   -0.1100
      9 C9         -1.6775    4.1123   56.2828 C.3     1  ZINC000175255939   -0.1200
     10 C10        -2.8136    4.0354   57.3046 C.3     1  ZINC000175255939   -0.1000
     11 H11        -3.0779    5.0413   57.6306 H       1  ZINC000175255939    0.1100
     12 C12        -4.0145    3.3805   56.6722 C.2     1  ZINC000175255939    0.5100
     13 O13        -4.2110    3.4957   55.4810 O.2     1  ZINC000175255939   -0.4800
     14 N14        -4.8701    2.6667   57.4304 N.am    1  ZINC000175255939   -0.6300
     15 C15        -5.9768    2.0650   56.8483 C.2     1  ZINC000175255939    0.2100
     16 C16        -6.9630    1.3769   57.4900 C.2     1  ZINC000175255939   -0.2600
     17 C17        -7.8360    0.9791   56.4443 C.2     1  ZINC000175255939    0.0900
     18 C18        -9.0881    0.1944   56.5797 C.ar    1  ZINC000175255939   -0.0500
     19 C19        -9.7263    0.1058   57.8155 C.ar    1  ZINC000175255939   -0.0600
     20 C20       -10.8897   -0.6240   57.9385 C.ar    1  ZINC000175255939   -0.1300
     21 C21       -11.4252   -1.2707   56.8325 C.ar    1  ZINC000175255939    0.1200
     22 O22       -12.5715   -1.9891   56.9565 O.3     1  ZINC000175255939   -0.3200
     23 C23       -12.5190   -3.1582   57.7765 C.3     1  ZINC000175255939    0.4100
     24 F24       -13.7467   -3.8264   57.7148 F       1  ZINC000175255939   -0.2000
     25 F25       -11.5039   -4.0044   57.3176 F       1  ZINC000175255939   -0.2000
     26 C26       -10.7916   -1.1841   55.6001 C.ar    1  ZINC000175255939   -0.1900
     27 C27        -9.6313   -0.4505   55.4699 C.ar    1  ZINC000175255939   -0.0500
     28 N28        -7.3145    1.4439   55.3341 N.2     1  ZINC000175255939   -0.3600
     29 O29        -6.2902    2.0509   55.5428 O.3     1  ZINC000175255939    0.1200
     30 C30        -2.3595    3.2111   58.5109 C.3     1  ZINC000175255939   -0.0900
     31 H31        -0.6503   -0.0435   61.4206 H       1  ZINC000175255939    0.1000
     32 H32         0.6430    1.1574   61.6517 H       1  ZINC000175255939    0.0600
     33 H33        -0.9454    1.4015   62.4170 H       1  ZINC000175255939    0.0600
     34 H34         0.8645    4.4266   58.5887 H       1  ZINC000175255939    0.0800
     35 H35         0.2602    2.9470   57.8052 H       1  ZINC000175255939    0.0700
     36 H36        -0.7224    5.7832   57.2508 H       1  ZINC000175255939    0.0700
     37 H37         0.3512    4.8320   56.1969 H       1  ZINC000175255939    0.0800
     38 H38        -2.0010    4.6995   55.4233 H       1  ZINC000175255939    0.0700
     39 H39        -1.4132    3.1064   55.9567 H       1  ZINC000175255939    0.0800
     40 H40        -4.7123    2.5735   58.3829 H       1  ZINC000175255939    0.4300
     41 H41        -7.0577    1.1802   58.5477 H       1  ZINC000175255939    0.1800
     42 H42        -9.3098    0.6080   58.6763 H       1  ZINC000175255939    0.1400
     43 H43       -11.3846   -0.6932   58.8959 H       1  ZINC000175255939    0.1400
     44 H44       -12.3136   -2.8701   58.8074 H       1  ZINC000175255939    0.1900
     45 H45       -11.2104   -1.6881   54.7416 H       1  ZINC000175255939    0.1400
     46 H46        -9.1392   -0.3832   54.5110 H       1  ZINC000175255939    0.1400
     47 H47        -2.0952    2.2052   58.1850 H       1  ZINC000175255939    0.0900
     48 H48        -3.1688    3.1563   59.2390 H       1  ZINC000175255939    0.0800
@<TRIPOS>BOND
     1     1     2    1
     2     1    31    1
     3     1    32    1
     4     1    33    1
     5     2     3    1
     6     3     4    2
     7     3     5    1
     8     5     6    1
     9     5    30    1
    10     5     7    1
    11     7     8    1
    12     7    34    1
    13     7    35    1
    14     8     9    1
    15     8    36    1
    16     8    37    1
    17     9    10    1
    18     9    38    1
    19     9    39    1
    20    10    11    1
    21    10    12    1
    22    10    30    1
    23    12    13    2
    24    12    14   am
    25    14    15    1
    26    14    40    1
    27    15    29    1
    28    15    16    2
    29    16    17    1
    30    16    41    1
    31    17    18    1
    32    17    28    2
    33    18    27   ar
    34    18    19   ar
    35    19    20   ar
    36    19    42    1
    37    20    21   ar
    38    20    43    1
    39    21    22    1
    40    21    26   ar
    41    22    23    1
    42    23    24    1
    43    23    25    1
    44    23    44    1
    45    26    27   ar
    46    26    45    1
    47    27    46    1
    48    28    29    1
    49    30    47    1
    50    30    48    1
@<TRIPOS>SUBSTRUCTURE
     1 ZINC000175255939        1 TEMP              0 ****  ****    0 ROOT


##########                                Name:    ZINC000416583757
##########                DOCK_Rotatable_Bonds:                   7
##########                         Heavy_Atoms:                  20
##########                    Molecular_Weight:             380.693
##########                DOCK_Rotatable_Bonds:                   7
##########                       Formal_Charge:         1.04308e-07
##########                     HBond_Acceptors:                   7
##########                        HBond_Donors:                   1
##########                         Heavy_Atoms:                  20
##########                          Grid_Score:          -27.506277
##########                     Grid_vdw_energy:          -27.804562
##########                      Grid_es_energy:            0.298284
##########           Internal_energy_repulsive:            9.497723

@<TRIPOS>MOLECULE
ZINC000416583757
 35 35 1 0 0
SMALL
USER_CHARGES


@<TRIPOS>ATOM
      1 C1        -14.6835   -1.0049   60.4038 C.3     1  ZINC000416583757   -0.1500
      2 C2        -13.7198   -2.0165   59.7805 C.3     1  ZINC000416583757   -0.0200
      3 H3        -12.9555   -2.2868   60.5092 H       1  ZINC000416583757    0.1200
      4 C4        -14.4645   -3.2217   59.3807 C.1     1  ZINC000416583757    0.2100
      5 N5        -15.0392   -4.1517   59.0721 N.1     1  ZINC000416583757   -0.4200
      6 C6        -13.0548   -1.3963   58.5501 C.3     1  ZINC000416583757    0.1300
      7 N7        -12.0348   -2.3119   58.0328 N.am    1  ZINC000416583757   -1.0100
      8 C8        -12.3883   -3.3001   57.0106 C.3     1  ZINC000416583757    0.0800
      9 S9        -10.4825   -2.2300   58.6036 S.o2    1  ZINC000416583757    2.7800
     10 O10       -10.5697   -2.3253   60.0187 O.2     1  ZINC000416583757   -0.9700
     11 O11        -9.7155   -3.1253   57.8102 O.2     1  ZINC000416583757   -0.9700
     12 N12        -9.9175   -0.7092   58.2712 N.am    1  ZINC000416583757   -1.1300
     13 C13        -8.5566   -0.3321   58.6609 C.3     1  ZINC000416583757    0.1600
     14 C14        -7.9320    0.4954   57.5673 C.ar    1  ZINC000416583757   -0.0800
     15 C15        -8.3129    0.3034   56.2527 C.ar    1  ZINC000416583757   -0.0800
     16 C16        -7.7400    1.0633   55.2482 C.ar    1  ZINC000416583757   -0.0300
     17 Cl17       -8.2190    0.8226   53.5970 Cl      1  ZINC000416583757   -0.0500
     18 C18        -6.7860    2.0149   55.5600 C.ar    1  ZINC000416583757   -0.0700
     19 C19        -6.4052    2.2066   56.8759 C.ar    1  ZINC000416583757   -0.0800
     20 Br20       -5.1010    3.5075   57.3031 Br      1  ZINC000416583757   -0.0300
     21 C21        -6.9823    1.4501   57.8798 C.ar    1  ZINC000416583757   -0.0700
     22 H22       -15.2462   -1.4847   61.2046 H       1  ZINC000416583757    0.0700
     23 H23       -14.1176   -0.1663   60.8095 H       1  ZINC000416583757    0.0800
     24 H24       -15.3734   -0.6428   59.6415 H       1  ZINC000416583757    0.0700
     25 H25       -13.8069   -1.2184   57.7814 H       1  ZINC000416583757    0.0900
     26 H26       -12.5878   -0.4512   58.8272 H       1  ZINC000416583757    0.1000
     27 H27       -12.2411   -2.8677   56.0209 H       1  ZINC000416583757    0.0700
     28 H28       -11.7540   -4.1797   57.1208 H       1  ZINC000416583757    0.0800
     29 H29       -13.4328   -3.5882   57.1295 H       1  ZINC000416583757    0.0800
     30 H30       -10.4876   -0.0683   57.8185 H       1  ZINC000416583757    0.4200
     31 H31        -8.5905    0.2496   59.5822 H       1  ZINC000416583757    0.0800
     32 H32        -7.9619   -1.2314   58.8209 H       1  ZINC000416583757    0.1000
     33 H33        -9.0576   -0.4400   56.0095 H       1  ZINC000416583757    0.1500
     34 H34        -6.3382    2.6081   54.7763 H       1  ZINC000416583757    0.1500
     35 H35        -6.6850    1.5997   58.9073 H       1  ZINC000416583757    0.1400
@<TRIPOS>BOND
     1     1     2    1
     2     1    22    1
     3     1    23    1
     4     1    24    1
     5     2     3    1
     6     2     4    1
     7     2     6    1
     8     4     5    3
     9     6     7    1
    10     6    25    1
    11     6    26    1
    12     7     8    1
    13     7     9   am
    14     8    27    1
    15     8    28    1
    16     8    29    1
    17     9    10    2
    18     9    11    2
    19     9    12   am
    20    12    13    1
    21    12    30    1
    22    13    14    1
    23    13    31    1
    24    13    32    1
    25    14    21   ar
    26    14    15   ar
    27    15    16   ar
    28    15    33    1
    29    16    17    1
    30    16    18   ar
    31    18    19   ar
    32    18    34    1
    33    19    20    1
    34    19    21   ar
    35    21    35    1
@<TRIPOS>SUBSTRUCTURE
     1 ZINC000416583757        1 TEMP              0 ****  ****    0 ROOT


##########                                Name:    ZINC000477589488
##########                DOCK_Rotatable_Bonds:                   6
##########                         Heavy_Atoms:                  32
##########                    Molecular_Weight:             423.517
##########                DOCK_Rotatable_Bonds:                   6
##########                       Formal_Charge:        -8.19564e-07
##########                     HBond_Acceptors:                   6
##########                        HBond_Donors:                   1
##########                         Heavy_Atoms:                  32
##########                          Grid_Score:          -27.506054
##########                     Grid_vdw_energy:          -27.707323
##########                      Grid_es_energy:            0.201269
##########           Internal_energy_repulsive:           23.564419

@<TRIPOS>MOLECULE
ZINC000477589488
 57 61 1 0 0
SMALL
USER_CHARGES


@<TRIPOS>ATOM
      1 O1        -10.1434    3.1984   57.4944 O.2     1  ZINC000477589488   -0.5800
      2 C2         -9.6658    2.1107   57.7538 C.2     1  ZINC000477589488    0.7100
      3 N3         -9.8242    1.0832   56.8962 N.am    1  ZINC000477589488   -0.7400
      4 C4        -10.5770    1.2752   55.6541 C.3     1  ZINC000477589488    0.2500
      5 H5        -10.6543    2.3406   55.4371 H       1  ZINC000477589488    0.1100
      6 C6        -11.9582    0.6926   55.8087 C.ar    1  ZINC000477589488   -0.0900
      7 C7        -12.1597   -0.3985   56.6333 C.ar    1  ZINC000477589488   -0.1000
      8 C8        -13.4267   -0.9329   56.7751 C.ar    1  ZINC000477589488   -0.1200
      9 C9        -14.4922   -0.3760   56.0927 C.ar    1  ZINC000477589488   -0.1200
     10 C10       -14.2908    0.7156   55.2689 C.ar    1  ZINC000477589488   -0.1200
     11 C11       -13.0245    1.2528   55.1304 C.ar    1  ZINC000477589488   -0.1000
     12 C12        -9.8634    0.5824   54.5219 C.ar    1  ZINC000477589488   -0.0700
     13 C13        -8.6333    1.0758   54.0554 C.ar    1  ZINC000477589488   -0.0400
     14 C14        -8.0406    2.2156   54.6252 C.ar    1  ZINC000477589488   -0.1100
     15 C15        -6.8481    2.6645   54.1475 C.ar    1  ZINC000477589488   -0.1100
     16 C16        -6.2030    2.0108   53.0989 C.ar    1  ZINC000477589488   -0.1100
     17 C17        -6.7471    0.9046   52.5224 C.ar    1  ZINC000477589488   -0.1100
     18 C18        -7.9772    0.4107   52.9893 C.ar    1  ZINC000477589488   -0.0500
     19 C19        -8.5696   -0.7289   52.4197 C.ar    1  ZINC000477589488   -0.1000
     20 C20        -9.7619   -1.1787   52.8985 C.ar    1  ZINC000477589488   -0.1100
     21 C21       -10.4045   -0.5279   53.9496 C.ar    1  ZINC000477589488   -0.1100
     22 N22        -8.9733    1.9341   58.8964 N.am    1  ZINC000477589488   -0.6300
     23 C23        -8.7936    3.0403   59.8490 C.3     1  ZINC000477589488    0.1300
     24 C24        -9.2084    2.5552   61.2422 C.3     1  ZINC000477589488    0.0500
     25 N25        -8.4708    1.3277   61.5694 N.3     1  ZINC000477589488   -0.4700
     26 C26        -8.6972    0.9467   62.8874 C.ar    1  ZINC000477589488    0.2500
     27 C27        -7.9369   -0.0704   63.4631 C.ar    1  ZINC000477589488   -0.1300
     28 C28        -8.2019   -0.4127   64.7799 C.ar    1  ZINC000477589488   -0.0900
     29 C29        -9.2065    0.2771   65.4437 C.ar    1  ZINC000477589488    0.0200
     30 N30        -9.8768    1.2264   64.8214 N.ar    1  ZINC000477589488   -0.2200
     31 N31        -9.6331    1.5524   63.6041 N.ar    1  ZINC000477589488   -0.2800
     32 C32        -8.8082    0.2399   60.6416 C.3     1  ZINC000477589488    0.0400
     33 C33        -8.3822    0.6285   59.2267 C.3     1  ZINC000477589488    0.1200
     34 H34        -9.4397    0.2166   57.1012 H       1  ZINC000477589488    0.3900
     35 H35       -11.3274   -0.8335   57.1664 H       1  ZINC000477589488    0.1100
     36 H36       -13.5841   -1.7858   57.4187 H       1  ZINC000477589488    0.1200
     37 H37       -15.4818   -0.7941   56.2029 H       1  ZINC000477589488    0.1200
     38 H38       -15.1231    1.1504   54.7354 H       1  ZINC000477589488    0.1200
     39 H39       -12.8671    2.1056   54.4867 H       1  ZINC000477589488    0.1200
     40 H40        -8.5291    2.7327   55.4378 H       1  ZINC000477589488    0.1300
     41 H41        -6.3947    3.5405   54.5872 H       1  ZINC000477589488    0.1300
     42 H42        -5.2575    2.3880   52.7384 H       1  ZINC000477589488    0.1300
     43 H43        -6.2361    0.4089   51.7101 H       1  ZINC000477589488    0.1300
     44 H44        -8.0818   -1.2450   51.6061 H       1  ZINC000477589488    0.1300
     45 H45       -10.2153   -2.0546   52.4585 H       1  ZINC000477589488    0.1300
     46 H46       -11.3496   -0.9056   54.3109 H       1  ZINC000477589488    0.1200
     47 H47        -7.7470    3.3444   59.8637 H       1  ZINC000477589488    0.0800
     48 H48        -9.4186    3.8830   59.5536 H       1  ZINC000477589488    0.1100
     49 H49        -8.9784    3.3251   61.9788 H       1  ZINC000477589488    0.1000
     50 H50       -10.2788    2.3499   61.2520 H       1  ZINC000477589488    0.0600
     51 H51        -7.1659   -0.5760   62.9006 H       1  ZINC000477589488    0.1500
     52 H52        -7.6432   -1.1935   65.2745 H       1  ZINC000477589488    0.1500
     53 H53        -9.4395    0.0359   66.4702 H       1  ZINC000477589488    0.1700
     54 H54        -8.2879   -0.6694   60.9427 H       1  ZINC000477589488    0.1000
     55 H55        -9.8842    0.0668   60.6599 H       1  ZINC000477589488    0.0600
     56 H56        -8.7325   -0.1233   58.5195 H       1  ZINC000477589488    0.0800
     57 H57        -7.2958    0.7023   59.1788 H       1  ZINC000477589488    0.0900
@<TRIPOS>BOND
     1     1     2    2
     2     2     3   am
     3     2    22   am
     4     3     4    1
     5     3    34    1
     6     4     5    1
     7     4     6    1
     8     4    12    1
     9     6    11   ar
    10     6     7   ar
    11     7     8   ar
    12     7    35    1
    13     8     9   ar
    14     8    36    1
    15     9    10   ar
    16     9    37    1
    17    10    11   ar
    18    10    38    1
    19    11    39    1
    20    12    21   ar
    21    12    13   ar
    22    13    18   ar
    23    13    14   ar
    24    14    15   ar
    25    14    40    1
    26    15    16   ar
    27    15    41    1
    28    16    17   ar
    29    16    42    1
    30    17    18   ar
    31    17    43    1
    32    18    19   ar
    33    19    20   ar
    34    19    44    1
    35    20    21   ar
    36    20    45    1
    37    21    46    1
    38    22    33    1
    39    22    23    1
    40    23    24    1
    41    23    47    1
    42    23    48    1
    43    24    25    1
    44    24    49    1
    45    24    50    1
    46    25    26    1
    47    25    32    1
    48    26    31   ar
    49    26    27   ar
    50    27    28   ar
    51    27    51    1
    52    28    29   ar
    53    28    52    1
    54    29    30   ar
    55    29    53    1
    56    30    31   ar
    57    32    33    1
    58    32    54    1
    59    32    55    1
    60    33    56    1
    61    33    57    1
@<TRIPOS>SUBSTRUCTURE
     1 ZINC000477589488        1 TEMP              0 ****  ****    0 ROOT


##########                                Name:    ZINC000271662144
##########                DOCK_Rotatable_Bonds:                   8
##########                         Heavy_Atoms:                  26
##########                    Molecular_Weight:             390.402
##########                DOCK_Rotatable_Bonds:                   8
##########                       Formal_Charge:          0.00999944
##########                     HBond_Acceptors:                   9
##########                        HBond_Donors:                   3
##########                         Heavy_Atoms:                  26
##########                          Grid_Score:          -27.487976
##########                     Grid_vdw_energy:          -27.542997
##########                      Grid_es_energy:            0.055020
##########           Internal_energy_repulsive:           12.350947

@<TRIPOS>MOLECULE
ZINC000271662144
 44 45 1 0 0
SMALL
USER_CHARGES


@<TRIPOS>ATOM
      1 C1        -12.0330    0.3732   53.2997 C.3     1  ZINC000271662144   -0.1400
      2 C2        -10.9938   -0.4434   54.0704 C.3     1  ZINC000271662144    0.1200
      3 H3        -11.2583   -1.4999   54.0286 H       1  ZINC000271662144    0.0600
      4 N4        -10.9639   -0.0010   55.4709 N.3     1  ZINC000271662144   -0.6700
      5 C5        -10.5874   -1.1052   56.3638 C.3     1  ZINC000271662144    0.1300
      6 H6         -9.9045   -1.7766   55.8432 H       1  ZINC000271662144    0.1100
      7 C7         -9.8992   -0.5423   57.6088 C.3     1  ZINC000271662144   -0.2000
      8 C8         -9.6364   -1.6755   58.6027 C.3     1  ZINC000271662144    0.4600
      9 F9         -8.5618   -1.3307   59.4294 F       1  ZINC000271662144   -0.1800
     10 F10       -10.7778   -1.8843   59.3842 F       1  ZINC000271662144   -0.1800
     11 F11        -9.3293   -2.8474   57.9031 F       1  ZINC000271662144   -0.1700
     12 C12       -11.8234   -1.8641   56.7729 C.ar    1  ZINC000271662144   -0.0900
     13 C13       -11.8931   -3.2301   56.5726 C.ar    1  ZINC000271662144   -0.0600
     14 C14       -13.0260   -3.9272   56.9473 C.ar    1  ZINC000271662144   -0.1600
     15 C15       -14.0915   -3.2567   57.5240 C.ar    1  ZINC000271662144    0.1000
     16 F16       -15.1994   -3.9372   57.8910 F       1  ZINC000271662144   -0.1400
     17 C17       -14.0205   -1.8886   57.7245 C.ar    1  ZINC000271662144   -0.1500
     18 C18       -12.8845   -1.1945   57.3533 C.ar    1  ZINC000271662144   -0.0700
     19 C19        -9.6352   -0.2406   53.4505 C.ar    1  ZINC000271662144   -0.1100
     20 C20        -9.0738   -1.2372   52.6749 C.ar    1  ZINC000271662144   -0.0400
     21 C21        -7.8274   -1.0511   52.1062 C.ar    1  ZINC000271662144   -0.1400
     22 C22        -7.1430    0.1317   52.3131 C.ar    1  ZINC000271662144   -0.0200
     23 C23        -7.7050    1.1291   53.0883 C.ar    1  ZINC000271662144   -0.6800
     24 S24        -6.8323    2.6368   53.3525 S.o2    1  ZINC000271662144    2.7000
     25 N25        -7.8530    3.8731   52.9377 N.am    1  ZINC000271662144   -1.2500
     26 O26        -6.6256    2.7404   54.7546 O.2     1  ZINC000271662144   -0.9600
     27 O27        -5.7718    2.6575   52.4070 O.2     1  ZINC000271662144   -0.9600
     28 C28        -8.9529    0.9447   53.6532 C.ar    1  ZINC000271662144   -0.0100
     29 H29       -13.0157    0.2266   53.7481 H       1  ZINC000271662144    0.0600
     30 H30       -11.7686    1.4299   53.3415 H       1  ZINC000271662144    0.0700
     31 H31       -12.0552    0.0451   52.2605 H       1  ZINC000271662144    0.0600
     32 H32       -10.3439    0.7863   55.5882 H       1  ZINC000271662144    0.3500
     33 H33        -8.9530   -0.0820   57.3242 H       1  ZINC000271662144    0.1100
     34 H34       -10.5421    0.2058   58.0725 H       1  ZINC000271662144    0.1200
     35 H35       -11.0619   -3.7529   56.1228 H       1  ZINC000271662144    0.1300
     36 H36       -13.0806   -4.9942   56.7901 H       1  ZINC000271662144    0.1400
     37 H37       -14.8510   -1.3646   58.1738 H       1  ZINC000271662144    0.1400
     38 H38       -12.8288   -0.1274   57.5100 H       1  ZINC000271662144    0.1300
     39 H39        -9.6085   -2.1615   52.5133 H       1  ZINC000271662144    0.1400
     40 H40        -7.3883   -1.8302   51.5006 H       1  ZINC000271662144    0.1400
     41 H41        -6.1690    0.2768   51.8695 H       1  ZINC000271662144    0.1400
     42 H42        -8.2014    3.9319   52.0343 H       1  ZINC000271662144    0.4200
     43 H43        -8.1025    4.5383   53.5980 H       1  ZINC000271662144    0.4200
     44 H44        -9.3920    1.7237   54.2588 H       1  ZINC000271662144    0.1400
@<TRIPOS>BOND
     1     1     2    1
     2     1    29    1
     3     1    30    1
     4     1    31    1
     5     2     3    1
     6     2     4    1
     7     2    19    1
     8     4     5    1
     9     4    32    1
    10     5     6    1
    11     5     7    1
    12     5    12    1
    13     7     8    1
    14     7    33    1
    15     7    34    1
    16     8     9    1
    17     8    10    1
    18     8    11    1
    19    12    18   ar
    20    12    13   ar
    21    13    14   ar
    22    13    35    1
    23    14    15   ar
    24    14    36    1
    25    15    16    1
    26    15    17   ar
    27    17    18   ar
    28    17    37    1
    29    18    38    1
    30    19    28   ar
    31    19    20   ar
    32    20    21   ar
    33    20    39    1
    34    21    22   ar
    35    21    40    1
    36    22    23   ar
    37    22    41    1
    38    23    24    1
    39    23    28   ar
    40    24    25   am
    41    24    26    2
    42    24    27    2
    43    25    42    1
    44    25    43    1
    45    28    44    1
@<TRIPOS>SUBSTRUCTURE
     1 ZINC000271662144        1 TEMP              0 ****  ****    0 ROOT


##########                                Name:    ZINC000540473851
##########                DOCK_Rotatable_Bonds:                   5
##########                         Heavy_Atoms:                  29
##########                    Molecular_Weight:             411.503
##########                DOCK_Rotatable_Bonds:                   5
##########                       Formal_Charge:           0.0200001
##########                     HBond_Acceptors:                   8
##########                        HBond_Donors:                   0
##########                         Heavy_Atoms:                  29
##########                          Grid_Score:          -27.461557
##########                     Grid_vdw_energy:          -27.098978
##########                      Grid_es_energy:           -0.362579
##########           Internal_energy_repulsive:           28.963037

@<TRIPOS>MOLECULE
ZINC000540473851
 51 54 1 0 0
SMALL
USER_CHARGES


@<TRIPOS>ATOM
      1 C1        -12.4904    1.6987   59.8462 C.3     1  ZINC000540473851   -0.0800
      2 C2        -11.4954    0.8435   60.5876 C.2     1  ZINC000540473851    0.1500
      3 C3        -11.0287   -0.3488   60.1015 C.2     1  ZINC000540473851   -0.3100
      4 C4        -11.4045   -0.9703   58.8258 C.2     1  ZINC000540473851    0.6000
      5 O5        -12.3580   -1.7244   58.7740 O.2     1  ZINC000540473851   -0.5100
      6 N6        -10.6934   -0.7055   57.7120 N.am    1  ZINC000540473851   -0.6100
      7 C7        -11.0563   -1.3126   56.4225 C.3     1  ZINC000540473851    0.1000
      8 C8        -11.1592   -0.2008   55.3729 C.3     1  ZINC000540473851    0.0400
      9 N9         -9.9131    0.5771   55.3643 N.3     1  ZINC000540473851   -0.5300
     10 C10        -9.9026    1.5423   54.2571 C.3     1  ZINC000540473851    0.1200
     11 H11        -9.9445    2.5553   54.6576 H       1  ZINC000540473851    0.0500
     12 C12       -11.1158    1.2992   53.3570 C.3     1  ZINC000540473851   -0.1400
     13 C13        -8.6391    1.3717   53.4538 C.ar    1  ZINC000540473851   -0.0500
     14 C14        -8.3771    0.1688   52.8253 C.ar    1  ZINC000540473851   -0.1000
     15 C15        -7.2183    0.0107   52.0880 C.ar    1  ZINC000540473851   -0.0900
     16 C16        -6.3205    1.0554   51.9785 C.ar    1  ZINC000540473851   -0.1500
     17 C17        -6.5820    2.2612   52.6074 C.ar    1  ZINC000540473851    0.1000
     18 F18        -5.7050    3.2832   52.5010 F       1  ZINC000540473851   -0.1400
     19 C19        -7.7453    2.4200   53.3410 C.ar    1  ZINC000540473851   -0.1500
     20 C20        -9.6966    1.2506   56.6518 C.3     1  ZINC000540473851    0.0400
     21 C21        -9.5374    0.2031   57.7526 C.3     1  ZINC000540473851    0.1200
     22 S22        -9.8959   -1.0029   61.2821 S.3     1  ZINC000540473851    0.2800
     23 C23       -10.1485    0.3523   62.2928 C.2     1  ZINC000540473851    0.0800
     24 C24        -9.4899    0.5631   63.6008 C.ar    1  ZINC000540473851    0.3800
     25 N25        -9.8170    1.6242   64.3272 N.ar    1  ZINC000540473851   -0.5100
     26 C26        -9.2476    1.8417   65.4995 C.ar    1  ZINC000540473851    0.1600
     27 C27        -8.2981    0.9448   65.9677 C.ar    1  ZINC000540473851   -0.2100
     28 C28        -7.9796   -0.1543   65.1829 C.ar    1  ZINC000540473851    0.1500
     29 N29        -8.5900   -0.3162   64.0222 N.ar    1  ZINC000540473851   -0.4700
     30 N30       -10.9973    1.1762   61.7475 N.2     1  ZINC000540473851   -0.4300
     31 H31       -11.9591    2.3941   59.1964 H       1  ZINC000540473851    0.0900
     32 H32       -13.1391    1.0624   59.2442 H       1  ZINC000540473851    0.0800
     33 H33       -13.0930    2.2582   60.5618 H       1  ZINC000540473851    0.0800
     34 H34       -10.2885   -2.0269   56.1250 H       1  ZINC000540473851    0.0900
     35 H35       -12.0167   -1.8198   56.5139 H       1  ZINC000540473851    0.0900
     36 H36       -11.3187   -0.6428   54.3892 H       1  ZINC000540473851    0.1000
     37 H37       -11.9953    0.4542   55.6176 H       1  ZINC000540473851    0.0400
     38 H38       -11.0740    0.2864   52.9566 H       1  ZINC000540473851    0.0700
     39 H39       -12.0298    1.4227   53.9381 H       1  ZINC000540473851    0.0600
     40 H40       -11.1081    2.0155   52.5355 H       1  ZINC000540473851    0.0600
     41 H41        -9.0781   -0.6484   52.9106 H       1  ZINC000540473851    0.1400
     42 H42        -7.0144   -0.9298   51.5976 H       1  ZINC000540473851    0.1300
     43 H43        -5.4150    0.9314   51.4031 H       1  ZINC000540473851    0.1300
     44 H44        -7.9505    3.3600   53.8315 H       1  ZINC000540473851    0.1300
     45 H45        -8.7954    1.8611   56.5959 H       1  ZINC000540473851    0.1000
     46 H46       -10.5531    1.8854   56.8788 H       1  ZINC000540473851    0.0400
     47 H47        -9.4914    0.6963   58.7235 H       1  ZINC000540473851    0.1000
     48 H48        -8.6243   -0.3681   57.5852 H       1  ZINC000540473851    0.0800
     49 H49        -9.5176    2.7074   66.0861 H       1  ZINC000540473851    0.1800
     50 H50        -7.8170    1.0989   66.9223 H       1  ZINC000540473851    0.1600
     51 H51        -7.2448   -0.8710   65.5185 H       1  ZINC000540473851    0.1800
@<TRIPOS>BOND
     1     1     2    1
     2     1    31    1
     3     1    32    1
     4     1    33    1
     5     2    30    1
     6     2     3    2
     7     3     4    1
     8     3    22    1
     9     4     5    2
    10     4     6   am
    11     6    21    1
    12     6     7    1
    13     7     8    1
    14     7    34    1
    15     7    35    1
    16     8     9    1
    17     8    36    1
    18     8    37    1
    19     9    10    1
    20     9    20    1
    21    10    11    1
    22    10    12    1
    23    10    13    1
    24    12    38    1
    25    12    39    1
    26    12    40    1
    27    13    19   ar
    28    13    14   ar
    29    14    15   ar
    30    14    41    1
    31    15    16   ar
    32    15    42    1
    33    16    17   ar
    34    16    43    1
    35    17    18    1
    36    17    19   ar
    37    19    44    1
    38    20    21    1
    39    20    45    1
    40    20    46    1
    41    21    47    1
    42    21    48    1
    43    22    23    1
    44    23    24    1
    45    23    30    2
    46    24    29   ar
    47    24    25   ar
    48    25    26   ar
    49    26    27   ar
    50    26    49    1
    51    27    28   ar
    52    27    50    1
    53    28    29   ar
    54    28    51    1
@<TRIPOS>SUBSTRUCTURE
     1 ZINC000540473851        1 TEMP              0 ****  ****    0 ROOT


##########                                Name:    ZINC001060733018
##########                DOCK_Rotatable_Bonds:                   7
##########                         Heavy_Atoms:                  24
##########                    Molecular_Weight:             342.429
##########                DOCK_Rotatable_Bonds:                   7
##########                       Formal_Charge:           0.0200001
##########                     HBond_Acceptors:                   6
##########                        HBond_Donors:                   2
##########                         Heavy_Atoms:                  24
##########                          Grid_Score:          -27.457407
##########                     Grid_vdw_energy:          -25.946367
##########                      Grid_es_energy:           -1.511039
##########           Internal_energy_repulsive:           11.824849

@<TRIPOS>MOLECULE
ZINC001060733018
 52 54 1 0 0
SMALL
USER_CHARGES


@<TRIPOS>ATOM
      1 O1         -4.4656    5.0315   53.5117 O.2     1  ZINC001060733018   -0.5000
      2 C2         -4.0253    3.9150   53.3377 C.2     1  ZINC001060733018    0.4700
      3 N3         -4.7419    3.0086   52.6436 N.am    1  ZINC001060733018   -0.7100
      4 C4         -6.0544    3.3710   52.1031 C.3     1  ZINC001060733018    0.1200
      5 C5         -7.1513    2.7198   52.9477 C.3     1  ZINC001060733018   -0.1000
      6 H6         -8.1278    3.0445   52.5881 H       1  ZINC001060733018    0.0800
      7 C7         -7.0463    1.1976   52.8344 C.3     1  ZINC001060733018   -0.1100
      8 C8         -8.1434    0.5464   53.6790 C.3     1  ZINC001060733018   -0.1300
      9 C9         -7.9748    0.9617   55.1419 C.3     1  ZINC001060733018    0.1400
     10 H10        -6.9983    0.6371   55.5016 H       1  ZINC001060733018    0.0900
     11 N11        -9.0251    0.3382   55.9507 N.am    1  ZINC001060733018   -0.7300
     12 C12        -8.8474    0.1753   57.2767 C.2     1  ZINC001060733018    0.5200
     13 O13        -7.8184    0.5463   57.8007 O.2     1  ZINC001060733018   -0.5400
     14 C14        -9.9272   -0.4678   58.1083 C.3     1  ZINC001060733018   -0.1000
     15 H15       -10.4983    0.3050   58.6228 H       1  ZINC001060733018    0.1000
     16 C16        -9.2896   -1.4016   59.1382 C.3     1  ZINC001060733018   -0.1100
     17 C17       -10.3732   -2.0019   60.0350 C.3     1  ZINC001060733018   -0.1200
     18 C18       -11.3212   -2.8561   59.1877 C.3     1  ZINC001060733018   -0.0800
     19 C19       -11.9003   -1.9893   58.0657 C.3     1  ZINC001060733018   -0.1300
     20 C20       -13.2194   -1.2660   58.3362 C.3     1  ZINC001060733018   -0.1700
     21 C21       -13.1842   -2.4668   57.3882 C.3     1  ZINC001060733018   -0.1700
     22 C22       -10.8607   -1.2727   57.1990 C.3     1  ZINC001060733018   -0.0600
     23 C23        -8.0797    2.4839   55.2553 C.3     1  ZINC001060733018   -0.1200
     24 C24        -6.9827    3.1351   54.4106 C.3     1  ZINC001060733018   -0.1100
     25 C25        -2.6745    3.5428   53.8922 C.3     1  ZINC001060733018    0.2600
     26 F26        -1.8195    4.6477   53.8183 F       1  ZINC001060733018   -0.1700
     27 F27        -2.8111    3.1474   55.2272 F       1  ZINC001060733018   -0.1900
     28 H28        -4.3886    2.1164   52.5021 H       1  ZINC001060733018    0.4100
     29 H29        -6.1713    4.4544   52.1284 H       1  ZINC001060733018    0.0800
     30 H30        -6.1326    3.0211   51.0737 H       1  ZINC001060733018    0.0800
     31 H31        -7.1665    0.9017   51.7922 H       1  ZINC001060733018    0.0700
     32 H32        -6.0700    0.8730   53.1940 H       1  ZINC001060733018    0.0700
     33 H33        -8.0686   -0.5379   53.5983 H       1  ZINC001060733018    0.0700
     34 H34        -9.1197    0.8711   53.3194 H       1  ZINC001060733018    0.0600
     35 H35        -9.8486    0.0425   55.5318 H       1  ZINC001060733018    0.4000
     36 H36        -8.7612   -2.2032   58.6222 H       1  ZINC001060733018    0.0700
     37 H37        -8.5850   -0.8386   59.7504 H       1  ZINC001060733018    0.0700
     38 H38        -9.9085   -2.6244   60.7996 H       1  ZINC001060733018    0.0700
     39 H39       -10.9357   -1.1994   60.5123 H       1  ZINC001060733018    0.0700
     40 H40       -10.7716   -3.6926   58.7560 H       1  ZINC001060733018    0.0700
     41 H41       -12.1307   -3.2327   59.8129 H       1  ZINC001060733018    0.0700
     42 H42       -13.6810   -1.4093   59.3132 H       1  ZINC001060733018    0.0900
     43 H43       -13.3522   -0.2788   57.8934 H       1  ZINC001060733018    0.0900
     44 H44       -13.2938   -2.2697   56.3219 H       1  ZINC001060733018    0.0900
     45 H45       -13.6224   -3.4003   57.7414 H       1  ZINC001060733018    0.0900
     46 H46       -11.3649   -0.5996   56.5056 H       1  ZINC001060733018    0.0700
     47 H47       -10.2816   -2.0082   56.6405 H       1  ZINC001060733018    0.0800
     48 H48        -7.9597    2.7797   56.2975 H       1  ZINC001060733018    0.0700
     49 H49        -9.0562    2.8085   54.8957 H       1  ZINC001060733018    0.0700
     50 H50        -6.0064    2.8105   54.7703 H       1  ZINC001060733018    0.0700
     51 H51        -7.0575    4.2195   54.4914 H       1  ZINC001060733018    0.0700
     52 H52        -2.2570    2.7208   53.3108 H       1  ZINC001060733018    0.1400
@<TRIPOS>BOND
     1     1     2    2
     2     2     3   am
     3     2    25    1
     4     3     4    1
     5     3    28    1
     6     4     5    1
     7     4    29    1
     8     4    30    1
     9     5     6    1
    10     5    24    1
    11     5     7    1
    12     7     8    1
    13     7    31    1
    14     7    32    1
    15     8     9    1
    16     8    33    1
    17     8    34    1
    18     9    10    1
    19     9    11    1
    20     9    23    1
    21    11    12   am
    22    11    35    1
    23    12    13    2
    24    12    14    1
    25    14    15    1
    26    14    22    1
    27    14    16    1
    28    16    17    1
    29    16    36    1
    30    16    37    1
    31    17    18    1
    32    17    38    1
    33    17    39    1
    34    18    19    1
    35    18    40    1
    36    18    41    1
    37    19    21    1
    38    19    20    1
    39    19    22    1
    40    20    21    1
    41    20    42    1
    42    20    43    1
    43    21    44    1
    44    21    45    1
    45    22    46    1
    46    22    47    1
    47    23    24    1
    48    23    48    1
    49    23    49    1
    50    24    50    1
    51    24    51    1
    52    25    26    1
    53    25    27    1
    54    25    52    1
@<TRIPOS>SUBSTRUCTURE
     1 ZINC001060733018        1 TEMP              0 ****  ****    0 ROOT


##########                                Name:    ZINC000076573199
##########                DOCK_Rotatable_Bonds:                  10
##########                         Heavy_Atoms:                  24
##########                    Molecular_Weight:             333.431
##########                DOCK_Rotatable_Bonds:                  10
##########                       Formal_Charge:          -0.0200009
##########                     HBond_Acceptors:                   6
##########                        HBond_Donors:                   3
##########                         Heavy_Atoms:                  24
##########                          Grid_Score:          -27.455105
##########                     Grid_vdw_energy:          -27.866732
##########                      Grid_es_energy:            0.411627
##########           Internal_energy_repulsive:           18.796301

@<TRIPOS>MOLECULE
ZINC000076573199
 51 51 1 0 0
SMALL
USER_CHARGES


@<TRIPOS>ATOM
      1 C1        -15.4642   -2.9472   57.7547 C.3     1  ZINC000076573199   -0.1500
      2 C2        -14.7525   -3.3116   59.0593 C.3     1  ZINC000076573199   -0.1200
      3 C3        -13.4347   -2.5400   59.1540 C.3     1  ZINC000076573199   -0.1000
      4 H4        -12.9277   -2.7996   60.0833 H       1  ZINC000076573199    0.0700
      5 C5        -13.7209   -1.0373   59.1317 C.3     1  ZINC000076573199   -0.1500
      6 C6        -12.5424   -2.9070   57.9665 C.3     1  ZINC000076573199   -0.1200
      7 C7        -11.1175   -2.4152   58.2282 C.3     1  ZINC000076573199    0.1400
      8 H8        -11.0902   -1.8636   59.1678 H       1  ZINC000076573199    0.1000
      9 C9        -10.1716   -3.6148   58.3134 C.3     1  ZINC000076573199   -0.1700
     10 N10       -10.6953   -1.5372   57.1340 N.am    1  ZINC000076573199   -0.6900
     11 C11        -9.7289   -0.6205   57.3402 C.2     1  ZINC000076573199    0.5100
     12 O12        -9.2096   -0.5214   58.4326 O.2     1  ZINC000076573199   -0.5100
     13 C13        -9.2973    0.2734   56.2243 C.2     1  ZINC000076573199    0.5100
     14 O14        -8.3213    0.9826   56.3577 O.2     1  ZINC000076573199   -0.5000
     15 N15        -9.9914    0.2926   55.0692 N.am    1  ZINC000076573199   -0.6400
     16 C16        -9.5876    1.1288   54.0252 C.ar    1  ZINC000076573199    0.1500
     17 C17       -10.3965    2.1868   53.6288 C.ar    1  ZINC000076573199   -0.1300
     18 C18        -9.9974    3.0143   52.5968 C.ar    1  ZINC000076573199   -0.0800
     19 C19        -8.7937    2.7931   51.9559 C.ar    1  ZINC000076573199   -0.1200
     20 C20        -8.3623    3.6985   50.8312 C.3     1  ZINC000076573199   -0.1100
     21 C21        -7.9801    1.7368   52.3475 C.ar    1  ZINC000076573199    0.1600
     22 N22        -6.7612    1.5136   51.6977 N.am    1  ZINC000076573199   -0.6700
     23 C23        -5.6316    2.0745   52.1730 C.2     1  ZINC000076573199    0.5100
     24 C24        -4.3187    1.8342   51.4732 C.3     1  ZINC000076573199   -0.1700
     25 O25        -5.6716    2.7729   53.1638 O.2     1  ZINC000076573199   -0.5200
     26 C26        -8.3751    0.9072   53.3866 C.ar    1  ZINC000076573199   -0.1400
     27 H27       -14.8283   -3.2087   56.9089 H       1  ZINC000076573199    0.0600
     28 H28       -16.4029   -3.4968   57.6873 H       1  ZINC000076573199    0.0500
     29 H29       -15.6679   -1.8766   57.7388 H       1  ZINC000076573199    0.0500
     30 H30       -15.3882   -3.0501   59.9052 H       1  ZINC000076573199    0.0600
     31 H31       -14.5487   -4.3822   59.0752 H       1  ZINC000076573199    0.0600
     32 H32       -14.1523   -0.7638   58.1688 H       1  ZINC000076573199    0.0600
     33 H33       -14.4228   -0.7892   59.9280 H       1  ZINC000076573199    0.0600
     34 H34       -12.7915   -0.4881   59.2825 H       1  ZINC000076573199    0.0500
     35 H35       -12.5354   -3.9893   57.8382 H       1  ZINC000076573199    0.0800
     36 H36       -12.9290   -2.4364   57.0625 H       1  ZINC000076573199    0.0700
     37 H37        -9.1563   -3.2644   58.4998 H       1  ZINC000076573199    0.0600
     38 H38       -10.4856   -4.2680   59.1275 H       1  ZINC000076573199    0.0700
     39 H39       -10.1987   -4.1665   57.3737 H       1  ZINC000076573199    0.0600
     40 H40       -11.1111   -1.6156   56.2612 H       1  ZINC000076573199    0.4100
     41 H41       -10.7714   -0.2743   54.9626 H       1  ZINC000076573199    0.4200
     42 H42       -11.3383    2.3622   54.1275 H       1  ZINC000076573199    0.1400
     43 H43       -10.6279    3.8357   52.2902 H       1  ZINC000076573199    0.1300
     44 H44        -7.7859    4.5306   51.2354 H       1  ZINC000076573199    0.0700
     45 H45        -7.7463    3.1371   50.1288 H       1  ZINC000076573199    0.0600
     46 H46        -9.2427    4.0826   50.3160 H       1  ZINC000076573199    0.0700
     47 H47        -6.7291    0.9551   50.9053 H       1  ZINC000076573199    0.4100
     48 H48        -4.3819    2.1976   50.4474 H       1  ZINC000076573199    0.0900
     49 H49        -3.5245    2.3648   51.9983 H       1  ZINC000076573199    0.1000
     50 H50        -4.1002    0.7664   51.4675 H       1  ZINC000076573199    0.0900
     51 H51        -7.7444    0.0855   53.6928 H       1  ZINC000076573199    0.1400
@<TRIPOS>BOND
     1     1     2    1
     2     1    27    1
     3     1    28    1
     4     1    29    1
     5     2     3    1
     6     2    30    1
     7     2    31    1
     8     3     4    1
     9     3     5    1
    10     3     6    1
    11     5    32    1
    12     5    33    1
    13     5    34    1
    14     6     7    1
    15     6    35    1
    16     6    36    1
    17     7     8    1
    18     7     9    1
    19     7    10    1
    20     9    37    1
    21     9    38    1
    22     9    39    1
    23    10    11   am
    24    10    40    1
    25    11    12    2
    26    11    13    1
    27    13    14    2
    28    13    15   am
    29    15    16    1
    30    15    41    1
    31    16    26   ar
    32    16    17   ar
    33    17    18   ar
    34    17    42    1
    35    18    19   ar
    36    18    43    1
    37    19    20    1
    38    19    21   ar
    39    20    44    1
    40    20    45    1
    41    20    46    1
    42    21    22    1
    43    21    26   ar
    44    22    23   am
    45    22    47    1
    46    23    24    1
    47    23    25    2
    48    24    48    1
    49    24    49    1
    50    24    50    1
    51    26    51    1
@<TRIPOS>SUBSTRUCTURE
     1 ZINC000076573199        1 TEMP              0 ****  ****    0 ROOT


##########                                Name:    ZINC000938043669
##########                DOCK_Rotatable_Bonds:                   7
##########                         Heavy_Atoms:                  27
##########                    Molecular_Weight:             372.439
##########                DOCK_Rotatable_Bonds:                   7
##########                       Formal_Charge:           0.0499999
##########                     HBond_Acceptors:                   6
##########                        HBond_Donors:                   1
##########                         Heavy_Atoms:                  27
##########                          Grid_Score:          -27.448860
##########                     Grid_vdw_energy:          -25.550928
##########                      Grid_es_energy:           -1.897932
##########           Internal_energy_repulsive:           19.973812

@<TRIPOS>MOLECULE
ZINC000938043669
 52 55 1 0 0
SMALL
USER_CHARGES


@<TRIPOS>ATOM
      1 O1        -12.7934    0.9753   58.4436 O.2     1  ZINC000938043669   -0.5000
      2 C2        -11.9406    0.5720   59.2059 C.2     1  ZINC000938043669    0.5300
      3 C3        -12.3298    0.0576   60.5679 C.3     1  ZINC000938043669    0.0500
      4 O4        -13.6957   -0.3616   60.5464 O.3     1  ZINC000938043669   -0.2800
      5 C5        -13.9859   -1.4835   59.8354 C.ar    1  ZINC000938043669    0.0900
      6 C6        -12.9759   -2.1719   59.1816 C.ar    1  ZINC000938043669   -0.1800
      7 C7        -13.2730   -3.3126   58.4597 C.ar    1  ZINC000938043669   -0.0900
      8 C8        -14.5760   -3.7681   58.3886 C.ar    1  ZINC000938043669   -0.1300
      9 C9        -15.5869   -3.0841   59.0390 C.ar    1  ZINC000938043669   -0.1100
     10 C10       -15.2946   -1.9454   59.7674 C.ar    1  ZINC000938043669    0.0800
     11 F11       -16.2818   -1.2771   60.4030 F       1  ZINC000938043669   -0.1300
     12 N12       -10.6456    0.5785   58.8328 N.am    1  ZINC000938043669   -0.6200
     13 C13        -9.5156    0.1162   59.6518 C.3     1  ZINC000938043669    0.1000
     14 C14        -8.2363    0.2873   58.8058 C.3     1  ZINC000938043669   -0.1400
     15 C15        -8.7805    0.3070   57.3529 C.3     1  ZINC000938043669    0.1300
     16 H16        -8.9397   -0.7054   56.9817 H       1  ZINC000938043669    0.1100
     17 N17        -7.8842    1.0534   56.4665 N.am    1  ZINC000938043669   -0.7200
     18 C18        -8.0009    0.9286   55.1297 C.2     1  ZINC000938043669    0.5200
     19 O19        -8.8489    0.1995   54.6604 O.2     1  ZINC000938043669   -0.5200
     20 C20        -7.0777    1.6950   54.2179 C.3     1  ZINC000938043669   -0.1000
     21 H21        -6.0601    1.3228   54.3353 H       1  ZINC000938043669    0.1000
     22 C22        -7.1218    3.1813   54.5801 C.3     1  ZINC000938043669   -0.1100
     23 C23        -7.5992    3.9911   53.3677 C.3     1  ZINC000938043669   -0.0600
     24 H24        -7.6874    5.0480   53.6194 H       1  ZINC000938043669    0.0800
     25 C25        -8.9425    3.4267   52.9297 C.2     1  ZINC000938043669   -0.1800
     26 C26        -8.9042    2.1342   52.6146 C.2     1  ZINC000938043669   -0.1300
     27 C27        -7.5257    1.5082   52.7626 C.3     1  ZINC000938043669   -0.0400
     28 H28        -7.5485    0.4537   52.4875 H       1  ZINC000938043669    0.0900
     29 C29        -6.5608    2.2862   51.8573 C.3     1  ZINC000938043669   -0.1200
     30 C30        -6.5951    3.7858   52.2250 C.3     1  ZINC000938043669   -0.1100
     31 C31       -10.1281    1.0446   57.5334 C.3     1  ZINC000938043669    0.1000
     32 H32       -11.6944   -0.7877   60.8323 H       1  ZINC000938043669    0.1000
     33 H33       -12.2047    0.8507   61.3052 H       1  ZINC000938043669    0.1000
     34 H34       -11.9573   -1.8170   59.2360 H       1  ZINC000938043669    0.1400
     35 H35       -12.4859   -3.8486   57.9501 H       1  ZINC000938043669    0.1300
     36 H36       -14.8053   -4.6596   57.8238 H       1  ZINC000938043669    0.1400
     37 H37       -16.6043   -3.4418   58.9816 H       1  ZINC000938043669    0.1500
     38 H38        -9.4439    0.7177   60.5580 H       1  ZINC000938043669    0.0800
     39 H39        -9.6508   -0.9339   59.9111 H       1  ZINC000938043669    0.0800
     40 H40        -7.7392    1.2276   59.0442 H       1  ZINC000938043669    0.0900
     41 H41        -7.5608   -0.5554   58.9533 H       1  ZINC000938043669    0.1000
     42 H42        -7.2068    1.6376   56.8419 H       1  ZINC000938043669    0.4000
     43 H43        -7.8105    3.3321   55.4114 H       1  ZINC000938043669    0.0700
     44 H44        -6.1251    3.5142   54.8695 H       1  ZINC000938043669    0.0800
     45 H45        -9.8436    4.0199   52.8790 H       1  ZINC000938043669    0.1200
     46 H46        -9.7713    1.5810   52.2853 H       1  ZINC000938043669    0.1200
     47 H47        -5.5478    1.9085   51.9967 H       1  ZINC000938043669    0.0700
     48 H48        -6.8561    2.1571   50.8160 H       1  ZINC000938043669    0.0700
     49 H49        -6.9112    4.3652   51.3575 H       1  ZINC000938043669    0.0700
     50 H50        -5.6002    4.1071   52.5330 H       1  ZINC000938043669    0.0700
     51 H51       -10.8159    0.7799   56.7303 H       1  ZINC000938043669    0.0900
     52 H52        -9.9701    2.1228   57.5586 H       1  ZINC000938043669    0.0700
@<TRIPOS>BOND
     1     1     2    2
     2     2     3    1
     3     2    12   am
     4     3     4    1
     5     3    32    1
     6     3    33    1
     7     4     5    1
     8     5    10   ar
     9     5     6   ar
    10     6     7   ar
    11     6    34    1
    12     7     8   ar
    13     7    35    1
    14     8     9   ar
    15     8    36    1
    16     9    10   ar
    17     9    37    1
    18    10    11    1
    19    12    31    1
    20    12    13    1
    21    13    14    1
    22    13    38    1
    23    13    39    1
    24    14    15    1
    25    14    40    1
    26    14    41    1
    27    15    16    1
    28    15    17    1
    29    15    31    1
    30    17    18   am
    31    17    42    1
    32    18    19    2
    33    18    20    1
    34    20    21    1
    35    20    27    1
    36    20    22    1
    37    22    23    1
    38    22    43    1
    39    22    44    1
    40    23    24    1
    41    23    30    1
    42    23    25    1
    43    25    26    2
    44    25    45    1
    45    26    27    1
    46    26    46    1
    47    27    28    1
    48    27    29    1
    49    29    30    1
    50    29    47    1
    51    29    48    1
    52    30    49    1
    53    30    50    1
    54    31    51    1
    55    31    52    1
@<TRIPOS>SUBSTRUCTURE
     1 ZINC000938043669        1 TEMP              0 ****  ****    0 ROOT


##########                                Name:    ZINC000426037318
##########                DOCK_Rotatable_Bonds:                   7
##########                         Heavy_Atoms:                  28
##########                    Molecular_Weight:             421.904
##########                DOCK_Rotatable_Bonds:                   7
##########                       Formal_Charge:         -0.00999981
##########                     HBond_Acceptors:                   9
##########                        HBond_Donors:                   1
##########                         Heavy_Atoms:                  28
##########                          Grid_Score:          -27.442366
##########                     Grid_vdw_energy:          -25.678886
##########                      Grid_es_energy:           -1.763479
##########           Internal_energy_repulsive:           20.165884

@<TRIPOS>MOLECULE
ZINC000426037318
 48 50 1 0 0
SMALL
USER_CHARGES


@<TRIPOS>ATOM
      1 C1         -6.5023    0.5012   52.0463 C.3     1  ZINC000426037318    0.0300
      2 O2         -7.3994    0.4285   53.1562 O.3     1  ZINC000426037318   -0.3800
      3 C3         -7.2774    1.5167   54.0744 C.3     1  ZINC000426037318    0.1300
      4 C4         -7.9562    1.1583   55.3712 C.ar    1  ZINC000426037318    0.3900
      5 N5         -8.9042    0.2384   55.3630 N.ar    1  ZINC000426037318   -0.5700
      6 C6         -9.5308   -0.1132   56.4730 C.ar    1  ZINC000426037318    0.4400
      7 O7        -10.4993   -1.0581   56.4454 O.3     1  ZINC000426037318   -0.2800
      8 C8        -10.7208   -1.7240   55.2006 C.3     1  ZINC000426037318    0.0300
      9 C9         -9.1714    0.5159   57.6955 C.ar    1  ZINC000426037318   -0.2000
     10 C10        -9.6750    0.3252   58.9873 C.2     1  ZINC000426037318    0.0500
     11 C11       -10.7696   -0.6669   59.2853 C.3     1  ZINC000426037318   -0.1200
     12 C12        -9.1189    1.0829   59.9405 C.2     1  ZINC000426037318   -0.2700
     13 C13        -9.4925    1.0468   61.3599 C.2     1  ZINC000426037318    0.6000
     14 O14        -9.3932    0.0099   61.9890 O.2     1  ZINC000426037318   -0.5000
     15 N15        -9.9454    2.1621   61.9660 N.am    1  ZINC000426037318   -0.6600
     16 C16       -10.3019    2.1276   63.3203 C.ar    1  ZINC000426037318    0.1200
     17 C17        -9.4055    1.6423   64.2622 C.ar    1  ZINC000426037318   -0.0700
     18 C18        -9.7575    1.6091   65.5976 C.ar    1  ZINC000426037318   -0.0900
     19 C19        -8.7838    1.0826   66.6202 C.3     1  ZINC000426037318   -0.1100
     20 C20       -11.0065    2.0603   65.9978 C.ar    1  ZINC000426037318    0.1300
     21 O21       -11.3516    2.0275   67.3126 O.3     1  ZINC000426037318   -0.3100
     22 C22       -12.6530    2.5088   67.6539 C.3     1  ZINC000426037318    0.0200
     23 C23       -11.9038    2.5458   65.0575 C.ar    1  ZINC000426037318   -0.1800
     24 C24       -11.5516    2.5847   63.7222 C.ar    1  ZINC000426037318   -0.0300
     25 Cl25      -12.6739    3.1926   62.5454 Cl      1  ZINC000426037318   -0.0600
     26 S26        -7.8811    2.1252   59.2602 S.3     1  ZINC000426037318    0.2200
     27 C27        -8.1589    1.4851   57.6462 C.ar    1  ZINC000426037318    0.1300
     28 N28        -7.5820    1.7669   56.4730 N.ar    1  ZINC000426037318   -0.5000
     29 H29        -6.6576   -0.3602   51.3967 H       1  ZINC000426037318    0.0900
     30 H30        -6.6906    1.4172   51.4863 H       1  ZINC000426037318    0.0500
     31 H31        -5.4745    0.5021   52.4093 H       1  ZINC000426037318    0.0500
     32 H32        -6.2226    1.7189   54.2601 H       1  ZINC000426037318    0.0900
     33 H33        -7.7484    2.4039   53.6510 H       1  ZINC000426037318    0.0800
     34 H34        -9.8070   -2.2322   54.8928 H       1  ZINC000426037318    0.0700
     35 H35       -11.5213   -2.4545   55.3167 H       1  ZINC000426037318    0.1100
     36 H36       -11.0030   -0.9931   54.4427 H       1  ZINC000426037318    0.0700
     37 H37       -10.3279   -1.6342   59.5248 H       1  ZINC000426037318    0.0900
     38 H38       -11.3571   -0.3158   60.1336 H       1  ZINC000426037318    0.1000
     39 H39       -11.4154   -0.7683   58.4131 H       1  ZINC000426037318    0.0800
     40 H40       -10.0245    2.9887   61.4646 H       1  ZINC000426037318    0.4100
     41 H41        -8.4330    1.2905   63.9512 H       1  ZINC000426037318    0.1600
     42 H42        -8.1677    1.9018   66.9909 H       1  ZINC000426037318    0.0700
     43 H43        -9.3333    0.6371   67.4495 H       1  ZINC000426037318    0.0700
     44 H44        -8.1461    0.3279   66.1599 H       1  ZINC000426037318    0.0700
     45 H45       -12.7448    3.5525   67.3532 H       1  ZINC000426037318    0.0600
     46 H46       -13.4072    1.9144   67.1384 H       1  ZINC000426037318    0.0600
     47 H47       -12.7997    2.4269   68.7310 H       1  ZINC000426037318    0.1000
     48 H48       -12.8761    2.8970   65.3700 H       1  ZINC000426037318    0.1500
@<TRIPOS>BOND
     1     1     2    1
     2     1    29    1
     3     1    30    1
     4     1    31    1
     5     2     3    1
     6     3     4    1
     7     3    32    1
     8     3    33    1
     9     4    28   ar
    10     4     5   ar
    11     5     6   ar
    12     6     7    1
    13     6     9   ar
    14     7     8    1
    15     8    34    1
    16     8    35    1
    17     8    36    1
    18     9    27   ar
    19     9    10    1
    20    10    11    1
    21    10    12    2
    22    11    37    1
    23    11    38    1
    24    11    39    1
    25    12    13    1
    26    12    26    1
    27    13    14    2
    28    13    15   am
    29    15    16    1
    30    15    40    1
    31    16    24   ar
    32    16    17   ar
    33    17    18   ar
    34    17    41    1
    35    18    19    1
    36    18    20   ar
    37    19    42    1
    38    19    43    1
    39    19    44    1
    40    20    21    1
    41    20    23   ar
    42    21    22    1
    43    22    45    1
    44    22    46    1
    45    22    47    1
    46    23    24   ar
    47    23    48    1
    48    24    25    1
    49    26    27    1
    50    27    28   ar
@<TRIPOS>SUBSTRUCTURE
     1 ZINC000426037318        1 TEMP              0 ****  ****    0 ROOT


##########                                Name:    ZINC000676204775
##########                DOCK_Rotatable_Bonds:                   4
##########                         Heavy_Atoms:                  25
##########                    Molecular_Weight:             359.452
##########                DOCK_Rotatable_Bonds:                   4
##########                       Formal_Charge:          0.00999978
##########                     HBond_Acceptors:                   8
##########                        HBond_Donors:                   2
##########                         Heavy_Atoms:                  25
##########                          Grid_Score:          -27.424221
##########                     Grid_vdw_energy:          -27.485136
##########                      Grid_es_energy:            0.060915
##########           Internal_energy_repulsive:            6.985407

@<TRIPOS>MOLECULE
ZINC000676204775
 46 49 1 0 0
SMALL
USER_CHARGES


@<TRIPOS>ATOM
      1 C1         -6.9589    1.2202   51.9905 C.3     1  ZINC000676204775   -0.1600
      2 C2         -7.4703    1.5161   53.4019 C.3     1  ZINC000676204775    0.1600
      3 C3         -8.2421    2.8372   53.3980 C.3     1  ZINC000676204775   -0.1600
      4 N4         -8.3567    0.4339   53.8369 N.pl3   1  ZINC000676204775   -0.3900
      5 N5         -9.0501   -0.4370   52.9901 N.2     1  ZINC000676204775   -0.2500
      6 C6         -9.7484   -1.2828   53.6925 C.2     1  ZINC000676204775    0.0900
      7 C7         -9.5265   -0.9810   55.1029 C.ar    1  ZINC000676204775   -0.2100
      8 C8         -9.9942   -1.5323   56.3007 C.ar    1  ZINC000676204775    0.0800
      9 C9         -9.5856   -1.0047   57.4915 C.ar    1  ZINC000676204775   -0.7200
     10 S10       -10.1735   -1.6983   59.0008 S.o2    1  ZINC000676204775    2.6900
     11 O11       -10.7436   -2.9569   58.6689 O.2     1  ZINC000676204775   -0.9300
     12 O12        -9.1251   -1.5454   59.9478 O.2     1  ZINC000676204775   -0.9600
     13 N13       -11.4207   -0.7437   59.5259 N.am    1  ZINC000676204775   -1.1100
     14 C14       -12.6104   -0.5673   58.6893 C.3     1  ZINC000676204775    0.2400
     15 H15       -12.3548   -0.7445   57.6446 H       1  ZINC000676204775    0.1000
     16 C16       -13.1524    0.8580   58.8548 C.3     1  ZINC000676204775   -0.1200
     17 C17       -14.5198    0.9728   58.1774 C.3     1  ZINC000676204775   -0.1200
     18 C18       -15.5685    0.2088   58.9954 C.3     1  ZINC000676204775   -0.0400
     19 C19       -15.0369   -1.1773   59.2655 C.2     1  ZINC000676204775   -0.2300
     20 C20       -15.7152   -2.2673   59.6690 C.2     1  ZINC000676204775    0.0600
     21 N21       -14.8299   -3.2832   59.7776 N.pl3   1  ZINC000676204775   -0.4800
     22 N22       -13.5626   -2.7931   59.4273 N.2     1  ZINC000676204775   -0.2400
     23 C23       -13.6852   -1.5348   59.1219 C.2     1  ZINC000676204775    0.0500
     24 C24        -8.7105    0.0738   57.5248 C.ar    1  ZINC000676204775    0.0100
     25 C25        -8.2401    0.6293   56.3686 C.ar    1  ZINC000676204775   -0.1500
     26 C26        -8.6350    0.1088   55.1389 C.ar    1  ZINC000676204775    0.1700
     27 H27        -6.4090    0.2791   51.9932 H       1  ZINC000676204775    0.0600
     28 H28        -7.8039    1.1455   51.3062 H       1  ZINC000676204775    0.0700
     29 H29        -6.2994    2.0254   51.6668 H       1  ZINC000676204775    0.0800
     30 H30        -6.6252    1.5909   54.0863 H       1  ZINC000676204775    0.1000
     31 H31        -9.0871    2.7624   52.7137 H       1  ZINC000676204775    0.0700
     32 H32        -8.6064    3.0480   54.4035 H       1  ZINC000676204775    0.0600
     33 H33        -7.5825    3.6424   53.0744 H       1  ZINC000676204775    0.0800
     34 H34       -10.3790   -2.0673   53.3011 H       1  ZINC000676204775    0.2000
     35 H35       -10.6749   -2.3705   56.2833 H       1  ZINC000676204775    0.1500
     36 H36       -11.3636   -0.3015   60.3874 H       1  ZINC000676204775    0.4200
     37 H37       -13.2531    1.0865   59.9157 H       1  ZINC000676204775    0.0800
     38 H38       -12.4604    1.5645   58.3966 H       1  ZINC000676204775    0.0800
     39 H39       -14.8051    2.0228   58.1125 H       1  ZINC000676204775    0.0700
     40 H40       -14.4641    0.5503   57.1741 H       1  ZINC000676204775    0.0700
     41 H41       -15.7464    0.7247   59.9388 H       1  ZINC000676204775    0.0700
     42 H42       -16.4984    0.1423   58.4307 H       1  ZINC000676204775    0.0700
     43 H43       -16.7750   -2.3208   59.8697 H       1  ZINC000676204775    0.1800
     44 H44       -15.0347   -4.1914   60.0498 H       1  ZINC000676204775    0.4400
     45 H45        -8.3986    0.4783   58.4764 H       1  ZINC000676204775    0.1500
     46 H46        -7.5602    1.4675   56.4084 H       1  ZINC000676204775    0.1300
@<TRIPOS>BOND
     1     1     2    1
     2     1    27    1
     3     1    28    1
     4     1    29    1
     5     2     3    1
     6     2     4    1
     7     2    30    1
     8     3    31    1
     9     3    32    1
    10     3    33    1
    11     4    26    1
    12     4     5    1
    13     5     6    2
    14     6     7    1
    15     6    34    1
    16     7    26   ar
    17     7     8   ar
    18     8     9   ar
    19     8    35    1
    20     9    10    1
    21     9    24   ar
    22    10    11    2
    23    10    12    2
    24    10    13   am
    25    13    14    1
    26    13    36    1
    27    14    15    1
    28    14    23    1
    29    14    16    1
    30    16    17    1
    31    16    37    1
    32    16    38    1
    33    17    18    1
    34    17    39    1
    35    17    40    1
    36    18    19    1
    37    18    41    1
    38    18    42    1
    39    19    23    1
    40    19    20    2
    41    20    21    1
    42    20    43    1
    43    21    22    1
    44    21    44    1
    45    22    23    2
    46    24    25   ar
    47    24    45    1
    48    25    26   ar
    49    25    46    1
@<TRIPOS>SUBSTRUCTURE
     1 ZINC000676204775        1 TEMP              0 ****  ****    0 ROOT


##########                                Name:    ZINC000225856071
##########                DOCK_Rotatable_Bonds:                   6
##########                         Heavy_Atoms:                  29
##########                    Molecular_Weight:             409.549
##########                DOCK_Rotatable_Bonds:                   6
##########                       Formal_Charge:         -0.00999989
##########                     HBond_Acceptors:                   5
##########                        HBond_Donors:                   1
##########                         Heavy_Atoms:                  29
##########                          Grid_Score:          -27.421247
##########                     Grid_vdw_energy:          -26.635048
##########                      Grid_es_energy:           -0.786199
##########           Internal_energy_repulsive:           28.858259

@<TRIPOS>MOLECULE
ZINC000225856071
 56 58 1 0 0
SMALL
USER_CHARGES


@<TRIPOS>ATOM
      1 C1         -7.1994    1.5341   51.7875 C.3     1  ZINC000225856071    0.0200
      2 O2         -7.3494    0.6791   52.9226 O.3     1  ZINC000225856071   -0.3100
      3 C3         -8.5389    0.7270   53.5781 C.ar    1  ZINC000225856071    0.1900
      4 C4         -8.8331    1.8002   54.4060 C.ar    1  ZINC000225856071   -0.2300
      5 C5        -10.0434    1.8467   55.0710 C.ar    1  ZINC000225856071    0.0700
      6 C6        -10.3637    3.0124   55.9707 C.3     1  ZINC000225856071   -0.1800
      7 C7        -10.9609    0.8250   54.9113 C.ar    1  ZINC000225856071   -0.7100
      8 S8        -12.5036    0.8876   55.7603 S.o2    1  ZINC000225856071    2.7000
      9 O9        -12.9874    2.2159   55.6160 O.2     1  ZINC000225856071   -0.9600
     10 O10       -13.2370   -0.2562   55.3444 O.2     1  ZINC000225856071   -0.9500
     11 N11       -12.1851    0.6783   57.3718 N.am    1  ZINC000225856071   -1.1100
     12 C12       -11.5347   -0.5495   57.8365 C.3     1  ZINC000225856071    0.2400
     13 H13       -10.8500   -0.9107   57.0691 H       1  ZINC000225856071    0.1100
     14 C14       -12.5805   -1.5991   58.1110 C.ar    1  ZINC000225856071   -0.1000
     15 C15       -12.6429   -2.7347   57.3251 C.ar    1  ZINC000225856071   -0.1000
     16 C16       -13.6022   -3.6976   57.5769 C.ar    1  ZINC000225856071   -0.1200
     17 C17       -14.4989   -3.5251   58.6148 C.ar    1  ZINC000225856071   -0.1100
     18 C18       -14.4359   -2.3900   59.4012 C.ar    1  ZINC000225856071   -0.1100
     19 C19       -13.4738   -1.4291   59.1522 C.ar    1  ZINC000225856071   -0.1000
     20 C20       -10.7663   -0.2633   59.1009 C.ar    1  ZINC000225856071   -0.0900
     21 C21       -11.0209    0.8905   59.8181 C.ar    1  ZINC000225856071   -0.1000
     22 C22       -10.3159    1.1530   60.9782 C.ar    1  ZINC000225856071   -0.1200
     23 C23        -9.3570    0.2616   61.4208 C.ar    1  ZINC000225856071   -0.0800
     24 C24        -8.5882    0.5481   62.6849 C.3     1  ZINC000225856071   -0.1200
     25 C25        -9.1032   -0.8932   60.7041 C.ar    1  ZINC000225856071   -0.1200
     26 C26        -9.8106   -1.1575   59.5465 C.ar    1  ZINC000225856071   -0.0600
     27 C27        -9.5341   -2.4162   58.7653 C.3     1  ZINC000225856071   -0.1300
     28 C28       -10.6701   -0.2458   54.0861 C.ar    1  ZINC000225856071    0.0200
     29 C29        -9.4634   -0.2949   53.4157 C.ar    1  ZINC000225856071   -0.1400
     30 C30        -9.1474   -1.4620   52.5162 C.3     1  ZINC000225856071   -0.1100
     31 H31        -7.3223    2.5724   52.0959 H       1  ZINC000225856071    0.0600
     32 H32        -6.2066    1.3977   51.3585 H       1  ZINC000225856071    0.1000
     33 H33        -7.9547    1.2846   51.0423 H       1  ZINC000225856071    0.0600
     34 H34        -8.1167    2.5987   54.5311 H       1  ZINC000225856071    0.1400
     35 H35       -10.8666    3.7889   55.3942 H       1  ZINC000225856071    0.0900
     36 H36       -11.0157    2.6797   56.7783 H       1  ZINC000225856071    0.1000
     37 H37        -9.4405    3.4120   56.3904 H       1  ZINC000225856071    0.0800
     38 H38       -12.4291    1.3685   58.0081 H       1  ZINC000225856071    0.4200
     39 H39       -11.9424   -2.8694   56.5143 H       1  ZINC000225856071    0.1200
     40 H40       -13.6515   -4.5844   56.9624 H       1  ZINC000225856071    0.1200
     41 H41       -15.2489   -4.2770   58.8111 H       1  ZINC000225856071    0.1200
     42 H42       -15.1366   -2.2551   60.2118 H       1  ZINC000225856071    0.1200
     43 H43       -13.4246   -0.5423   59.7666 H       1  ZINC000225856071    0.1200
     44 H44       -11.7703    1.5871   59.4722 H       1  ZINC000225856071    0.1200
     45 H45       -10.5145    2.0549   61.5382 H       1  ZINC000225856071    0.1200
     46 H46        -9.1171    0.1202   63.5366 H       1  ZINC000225856071    0.0700
     47 H47        -7.5948    0.1050   62.6144 H       1  ZINC000225856071    0.0700
     48 H48        -8.4968    1.6260   62.8181 H       1  ZINC000225856071    0.0700
     49 H49        -8.3541   -1.5899   61.0502 H       1  ZINC000225856071    0.1200
     50 H50       -10.1798   -3.2169   59.1258 H       1  ZINC000225856071    0.0800
     51 H51        -9.7314   -2.2384   57.7081 H       1  ZINC000225856071    0.0700
     52 H52        -8.4909   -2.7037   58.8968 H       1  ZINC000225856071    0.0700
     53 H53       -11.3887   -1.0426   53.9627 H       1  ZINC000225856071    0.1500
     54 H54        -9.4921   -1.2451   51.5051 H       1  ZINC000225856071    0.0700
     55 H55        -8.0705   -1.6305   52.5045 H       1  ZINC000225856071    0.0700
     56 H56        -9.6508   -2.3543   52.8882 H       1  ZINC000225856071    0.0700
@<TRIPOS>BOND
     1     1     2    1
     2     1    31    1
     3     1    32    1
     4     1    33    1
     5     2     3    1
     6     3    29   ar
     7     3     4   ar
     8     4     5   ar
     9     4    34    1
    10     5     6    1
    11     5     7   ar
    12     6    35    1
    13     6    36    1
    14     6    37    1
    15     7     8    1
    16     7    28   ar
    17     8     9    2
    18     8    10    2
    19     8    11   am
    20    11    12    1
    21    11    38    1
    22    12    13    1
    23    12    14    1
    24    12    20    1
    25    14    19   ar
    26    14    15   ar
    27    15    16   ar
    28    15    39    1
    29    16    17   ar
    30    16    40    1
    31    17    18   ar
    32    17    41    1
    33    18    19   ar
    34    18    42    1
    35    19    43    1
    36    20    26   ar
    37    20    21   ar
    38    21    22   ar
    39    21    44    1
    40    22    23   ar
    41    22    45    1
    42    23    24    1
    43    23    25   ar
    44    24    46    1
    45    24    47    1
    46    24    48    1
    47    25    26   ar
    48    25    49    1
    49    26    27    1
    50    27    50    1
    51    27    51    1
    52    27    52    1
    53    28    29   ar
    54    28    53    1
    55    29    30    1
    56    30    54    1
    57    30    55    1
    58    30    56    1
@<TRIPOS>SUBSTRUCTURE
     1 ZINC000225856071        1 TEMP              0 ****  ****    0 ROOT


##########                                Name:    ZINC000481838178
##########                DOCK_Rotatable_Bonds:                   6
##########                         Heavy_Atoms:                  29
##########                    Molecular_Weight:             408.524
##########                DOCK_Rotatable_Bonds:                   6
##########                       Formal_Charge:         -0.00999962
##########                     HBond_Acceptors:                   7
##########                        HBond_Donors:                   0
##########                         Heavy_Atoms:                  29
##########                          Grid_Score:          -27.407585
##########                     Grid_vdw_energy:          -27.817997
##########                      Grid_es_energy:            0.410413
##########           Internal_energy_repulsive:           14.123122

@<TRIPOS>MOLECULE
ZINC000481838178
 53 57 1 0 0
SMALL
USER_CHARGES


@<TRIPOS>ATOM
      1 O1        -10.8046   -2.0938   55.2660 O.2     1  ZINC000481838178   -0.5200
      2 C2        -11.5740   -1.1657   55.3982 C.2     1  ZINC000481838178    0.5500
      3 C3        -11.4776    0.0289   54.4846 C.3     1  ZINC000481838178   -0.1500
      4 S4         -9.8252    0.0940   53.7489 S.3     1  ZINC000481838178    0.1000
      5 C5         -8.8764    0.5364   55.1661 C.2     1  ZINC000481838178    0.1600
      6 N6         -9.1310    0.1996   56.4105 N.2     1  ZINC000481838178   -0.2800
      7 N7         -8.2385    0.6895   57.1944 N.2     1  ZINC000481838178   -0.2500
      8 C8         -7.3546    1.3720   56.4994 C.2     1  ZINC000481838178    0.2700
      9 C9         -6.1820    2.0822   57.0319 C.2     1  ZINC000481838178    0.0300
     10 C10        -6.0500    2.5737   58.2963 C.2     1  ZINC000481838178   -0.1300
     11 C11        -4.7770    3.1717   58.3678 C.2     1  ZINC000481838178   -0.2100
     12 C12        -4.1995    3.0189   57.1594 C.2     1  ZINC000481838178   -0.0100
     13 O13        -5.0481    2.3555   56.3566 O.3     1  ZINC000481838178   -0.1700
     14 N14        -7.7333    1.2900   55.1753 N.pl3   1  ZINC000481838178   -0.4100
     15 C15        -7.0881    1.8651   54.0719 C.ar    1  ZINC000481838178    0.1000
     16 C16        -6.9294    1.1360   52.9011 C.ar    1  ZINC000481838178   -0.0800
     17 C17        -6.2930    1.7054   51.8155 C.ar    1  ZINC000481838178   -0.1100
     18 C18        -5.8143    3.0003   51.8938 C.ar    1  ZINC000481838178   -0.1000
     19 C19        -5.9708    3.7290   53.0586 C.ar    1  ZINC000481838178   -0.1100
     20 C20        -6.6114    3.1670   54.1456 C.ar    1  ZINC000481838178   -0.0900
     21 N21       -12.5190   -1.2051   56.3584 N.am    1  ZINC000481838178   -0.6200
     22 C22       -12.7273   -2.3106   57.3315 C.3     1  ZINC000481838178    0.1000
     23 C23       -13.4025   -1.6099   58.5165 C.3     1  ZINC000481838178   -0.1100
     24 H24       -12.6836   -1.0152   59.0800 H       1  ZINC000481838178    0.0900
     25 C25       -14.2184   -2.4933   59.4414 C.3     1  ZINC000481838178   -0.1100
     26 C26       -14.8894   -1.5702   60.4722 C.3     1  ZINC000481838178   -0.1200
     27 C27       -15.7577   -0.5120   59.7993 C.3     1  ZINC000481838178   -0.1200
     28 C28       -14.9667    0.2853   58.7484 C.3     1  ZINC000481838178   -0.1000
     29 C29       -14.4077   -0.7000   57.7482 C.3     1  ZINC000481838178   -0.1100
     30 H30       -15.2102   -1.3173   57.3445 H       1  ZINC000481838178    0.0900
     31 C31       -13.5265   -0.1500   56.6308 C.3     1  ZINC000481838178    0.1200
     32 H32       -12.2239   -0.0565   53.6946 H       1  ZINC000481838178    0.1300
     33 H33       -11.6567    0.9393   55.0566 H       1  ZINC000481838178    0.1300
     34 H34        -6.7805    2.5161   59.0897 H       1  ZINC000481838178    0.1600
     35 H35        -4.3451    3.6607   59.2283 H       1  ZINC000481838178    0.1600
     36 H36        -3.2154    3.3680   56.8837 H       1  ZINC000481838178    0.2100
     37 H37        -7.3028    0.1245   52.8394 H       1  ZINC000481838178    0.1300
     38 H38        -6.1691    1.1387   50.9045 H       1  ZINC000481838178    0.1400
     39 H39        -5.3167    3.4434   51.0438 H       1  ZINC000481838178    0.1300
     40 H40        -5.5955    4.7400   53.1170 H       1  ZINC000481838178    0.1400
     41 H41        -6.7333    3.7366   55.0551 H       1  ZINC000481838178    0.1300
     42 H42       -13.3821   -3.0744   56.9120 H       1  ZINC000481838178    0.0800
     43 H43       -11.7733   -2.7431   57.6328 H       1  ZINC000481838178    0.0800
     44 H44       -14.9782   -3.0272   58.8707 H       1  ZINC000481838178    0.0700
     45 H45       -13.5654   -3.2038   59.9483 H       1  ZINC000481838178    0.0700
     46 H46       -15.5110   -2.1709   61.1361 H       1  ZINC000481838178    0.0600
     47 H47       -14.1176   -1.0748   61.0614 H       1  ZINC000481838178    0.0600
     48 H48       -16.6022   -1.0010   59.3136 H       1  ZINC000481838178    0.0600
     49 H49       -16.1339    0.1745   60.5579 H       1  ZINC000481838178    0.0700
     50 H50       -15.6260    0.9922   58.2446 H       1  ZINC000481838178    0.0700
     51 H51       -14.1453    0.8183   59.2273 H       1  ZINC000481838178    0.0700
     52 H52       -13.0444    0.7734   56.9515 H       1  ZINC000481838178    0.0700
     53 H53       -14.1215    0.0268   55.7347 H       1  ZINC000481838178    0.0700
@<TRIPOS>BOND
     1     1     2    2
     2     2     3    1
     3     2    21   am
     4     3     4    1
     5     3    32    1
     6     3    33    1
     7     4     5    1
     8     5    14    1
     9     5     6    2
    10     6     7    1
    11     7     8    2
    12     8     9    1
    13     8    14    1
    14     9    13    1
    15     9    10    2
    16    10    11    1
    17    10    34    1
    18    11    12    2
    19    11    35    1
    20    12    13    1
    21    12    36    1
    22    14    15    1
    23    15    20   ar
    24    15    16   ar
    25    16    17   ar
    26    16    37    1
    27    17    18   ar
    28    17    38    1
    29    18    19   ar
    30    18    39    1
    31    19    20   ar
    32    19    40    1
    33    20    41    1
    34    21    31    1
    35    21    22    1
    36    22    23    1
    37    22    42    1
    38    22    43    1
    39    23    24    1
    40    23    29    1
    41    23    25    1
    42    25    26    1
    43    25    44    1
    44    25    45    1
    45    26    27    1
    46    26    46    1
    47    26    47    1
    48    27    28    1
    49    27    48    1
    50    27    49    1
    51    28    29    1
    52    28    50    1
    53    28    51    1
    54    29    30    1
    55    29    31    1
    56    31    52    1
    57    31    53    1
@<TRIPOS>SUBSTRUCTURE
     1 ZINC000481838178        1 TEMP              0 ****  ****    0 ROOT


##########                                Name:    ZINC000179496896
##########                DOCK_Rotatable_Bonds:                   8
##########                         Heavy_Atoms:                  27
##########                    Molecular_Weight:             396.504
##########                DOCK_Rotatable_Bonds:                   8
##########                       Formal_Charge:          0.00999944
##########                     HBond_Acceptors:                   8
##########                        HBond_Donors:                   1
##########                         Heavy_Atoms:                  27
##########                          Grid_Score:          -27.398710
##########                     Grid_vdw_energy:          -25.145647
##########                      Grid_es_energy:           -2.253063
##########           Internal_energy_repulsive:           35.948689

@<TRIPOS>MOLECULE
ZINC000179496896
 53 55 1 0 0
SMALL
USER_CHARGES


@<TRIPOS>ATOM
      1 C1        -12.7282    3.0891   67.8683 C.3     1  ZINC000179496896   -0.1500
      2 C2        -13.1450    2.7389   66.4385 C.3     1  ZINC000179496896   -0.1100
      3 C3        -14.0358    3.8505   65.8802 C.3     1  ZINC000179496896   -0.1400
      4 C4        -11.8977    2.5972   65.5638 C.3     1  ZINC000179496896    0.1200
      5 N5        -12.2970    2.2632   64.1944 N.pl3   1  ZINC000179496896   -0.3300
      6 N6        -13.6043    2.0147   63.7614 N.2     1  ZINC000179496896   -0.2700
      7 C7        -13.5834    1.7507   62.4841 C.2     1  ZINC000179496896    0.0800
      8 C8        -12.2423    1.8213   62.0451 C.2     1  ZINC000179496896   -0.2500
      9 C9        -11.7580    1.5940   60.6713 C.2     1  ZINC000179496896    0.5900
     10 O10       -12.4587    1.8905   59.7227 O.2     1  ZINC000179496896   -0.5300
     11 N11       -10.5386    1.0575   60.4667 N.am    1  ZINC000179496896   -0.7100
     12 C12       -10.0582    0.8300   59.1015 C.3     1  ZINC000179496896    0.1300
     13 C13        -8.6039    0.3566   59.1450 C.3     1  ZINC000179496896    0.0700
     14 H14        -8.0699    0.8949   59.9281 H       1  ZINC000179496896    0.0900
     15 C15        -8.5647   -1.1442   59.4399 C.3     1  ZINC000179496896   -0.1900
     16 N16        -7.9649    0.6177   57.8483 N.3     1  ZINC000179496896   -0.5300
     17 C17        -7.5296    2.0180   57.7480 C.3     1  ZINC000179496896    0.0600
     18 C18        -6.5346    2.1522   56.5888 C.3     1  ZINC000179496896   -0.0400
     19 C19        -7.1329    1.4724   55.3753 C.2     1  ZINC000179496896   -0.1700
     20 C20        -8.1758    0.6201   55.4273 C.2     1  ZINC000179496896   -0.1100
     21 C21        -8.5517    0.1222   54.1850 C.2     1  ZINC000179496896   -0.1200
     22 C22        -7.8358    0.5546   53.1507 C.2     1  ZINC000179496896   -0.2200
     23 S23        -6.5937    1.6631   53.7151 S.3     1  ZINC000179496896    0.1000
     24 C24        -8.8574    0.2555   56.7391 C.3     1  ZINC000179496896    0.1200
     25 C25       -11.4711    2.1495   63.1420 C.2     1  ZINC000179496896    0.0700
     26 C26        -9.9758    2.3358   63.1575 C.3     1  ZINC000179496896    0.3400
     27 F27        -9.6714    3.6296   63.5939 F       1  ZINC000179496896   -0.1500
     28 F28        -9.3986    1.4029   64.0258 F       1  ZINC000179496896   -0.2000
     29 H29       -13.6168    3.1901   68.4914 H       1  ZINC000179496896    0.0600
     30 H30       -12.0936    2.2971   68.2659 H       1  ZINC000179496896    0.0600
     31 H31       -12.1772    4.0296   67.8661 H       1  ZINC000179496896    0.0600
     32 H32       -13.6960    1.7984   66.4407 H       1  ZINC000179496896    0.0800
     33 H33       -13.4848    4.7910   65.8780 H       1  ZINC000179496896    0.0600
     34 H34       -14.3328    3.6011   64.8615 H       1  ZINC000179496896    0.0600
     35 H35       -14.9245    3.9515   66.5033 H       1  ZINC000179496896    0.0700
     36 H36       -11.3462    3.5374   65.5622 H       1  ZINC000179496896    0.1000
     37 H37       -11.2635    1.8047   65.9609 H       1  ZINC000179496896    0.1000
     38 H38       -14.4408    1.5185   61.8699 H       1  ZINC000179496896    0.2000
     39 H39        -9.9792    0.8221   61.2233 H       1  ZINC000179496896    0.4100
     40 H40       -10.6737    0.0691   58.6218 H       1  ZINC000179496896    0.0700
     41 H41       -10.1211    1.7589   58.5347 H       1  ZINC000179496896    0.0700
     42 H42        -7.5287   -1.4814   59.4709 H       1  ZINC000179496896    0.0600
     43 H43        -9.0389   -1.3379   60.4021 H       1  ZINC000179496896    0.0700
     44 H44        -9.0987   -1.6824   58.6568 H       1  ZINC000179496896    0.0600
     45 H45        -8.3938    2.6559   57.5622 H       1  ZINC000179496896    0.0400
     46 H46        -7.0476    2.3175   58.6786 H       1  ZINC000179496896    0.0900
     47 H47        -6.3615    3.2063   56.3723 H       1  ZINC000179496896    0.0800
     48 H48        -5.5935    1.6707   56.8540 H       1  ZINC000179496896    0.0900
     49 H49        -9.3715   -0.5709   54.0673 H       1  ZINC000179496896    0.1400
     50 H50        -7.9936    0.2684   52.1213 H       1  ZINC000179496896    0.1600
     51 H51        -9.0547   -0.8163   56.7634 H       1  ZINC000179496896    0.0900
     52 H52        -9.7946    0.8047   56.8294 H       1  ZINC000179496896    0.0500
     53 H53        -9.5808    2.1892   62.1522 H       1  ZINC000179496896    0.1300
@<TRIPOS>BOND
     1     1     2    1
     2     1    29    1
     3     1    30    1
     4     1    31    1
     5     2     3    1
     6     2     4    1
     7     2    32    1
     8     3    33    1
     9     3    34    1
    10     3    35    1
    11     4     5    1
    12     4    36    1
    13     4    37    1
    14     5    25    1
    15     5     6    1
    16     6     7    2
    17     7     8    1
    18     7    38    1
    19     8     9    1
    20     8    25    2
    21     9    10    2
    22     9    11   am
    23    11    12    1
    24    11    39    1
    25    12    13    1
    26    12    40    1
    27    12    41    1
    28    13    14    1
    29    13    15    1
    30    13    16    1
    31    15    42    1
    32    15    43    1
    33    15    44    1
    34    16    24    1
    35    16    17    1
    36    17    18    1
    37    17    45    1
    38    17    46    1
    39    18    19    1
    40    18    47    1
    41    18    48    1
    42    19    23    1
    43    19    20    2
    44    20    21    1
    45    20    24    1
    46    21    22    2
    47    21    49    1
    48    22    23    1
    49    22    50    1
    50    24    51    1
    51    24    52    1
    52    25    26    1
    53    26    27    1
    54    26    28    1
    55    26    53    1
@<TRIPOS>SUBSTRUCTURE
     1 ZINC000179496896        1 TEMP              0 ****  ****    0 ROOT


##########                                Name:    ZINC000763800048
##########                DOCK_Rotatable_Bonds:                   8
##########                         Heavy_Atoms:                  23
##########                    Molecular_Weight:             329.783
##########                DOCK_Rotatable_Bonds:                   8
##########                       Formal_Charge:           0.0199994
##########                     HBond_Acceptors:                   5
##########                        HBond_Donors:                   1
##########                         Heavy_Atoms:                  23
##########                          Grid_Score:          -27.362059
##########                     Grid_vdw_energy:          -24.535728
##########                      Grid_es_energy:           -2.826329
##########           Internal_energy_repulsive:            6.156816

@<TRIPOS>MOLECULE
ZINC000763800048
 39 40 1 0 0
SMALL
USER_CHARGES


@<TRIPOS>ATOM
      1 C1         -8.4264    3.9075   51.2404 C.3     1  ZINC000763800048    0.0400
      2 O2         -8.2038    2.7821   52.1304 O.3     1  ZINC000763800048   -0.3600
      3 C3         -7.3305    1.8472   51.7241 C.2     1  ZINC000763800048    0.4600
      4 O4         -6.7715    1.9648   50.6594 O.2     1  ZINC000763800048   -0.4900
      5 C5         -7.0476    0.6509   52.5957 C.3     1  ZINC000763800048   -0.0700
      6 C6         -8.1039    0.5479   53.6657 C.ar    1  ZINC000763800048   -0.0600
      7 C7         -9.2367   -0.2140   53.4465 C.ar    1  ZINC000763800048   -0.1200
      8 C8        -10.2086   -0.3111   54.4259 C.ar    1  ZINC000763800048   -0.1000
      9 C9        -10.0500    0.3525   55.6264 C.ar    1  ZINC000763800048   -0.1100
     10 C10        -8.9127    1.1184   55.8499 C.ar    1  ZINC000763800048    0.1500
     11 N11        -8.7489    1.7915   57.0644 N.am    1  ZINC000763800048   -0.6700
     12 C12        -7.7853    1.4058   57.9241 C.2     1  ZINC000763800048    0.5500
     13 O13        -7.0576    0.4714   57.6432 O.2     1  ZINC000763800048   -0.5200
     14 C14        -7.6139    2.1103   59.1952 C.2     1  ZINC000763800048   -0.2100
     15 C15        -8.4064    1.8106   60.2446 C.2     1  ZINC000763800048   -0.0100
     16 C16        -9.4445    0.7762   60.1108 C.ar    1  ZINC000763800048   -0.0800
     17 C17       -10.7813    1.1424   59.9236 C.ar    1  ZINC000763800048   -0.0900
     18 C18       -11.7484    0.1682   59.7992 C.ar    1  ZINC000763800048   -0.1100
     19 C19       -11.3989   -1.1712   59.8597 C.ar    1  ZINC000763800048   -0.0200
     20 Cl20      -12.6237   -2.3913   59.7026 Cl      1  ZINC000763800048   -0.0600
     21 C21       -10.0767   -1.5413   60.0447 C.ar    1  ZINC000763800048   -0.1100
     22 C22        -9.0983   -0.5779   60.1648 C.ar    1  ZINC000763800048   -0.0800
     23 C23        -7.9366    1.2099   54.8663 C.ar    1  ZINC000763800048   -0.1300
     24 H24        -9.1521    4.5866   51.6879 H       1  ZINC000763800048    0.1000
     25 H25        -7.4863    4.4352   51.0797 H       1  ZINC000763800048    0.0600
     26 H26        -8.8079    3.5458   50.2856 H       1  ZINC000763800048    0.0600
     27 H27        -7.0581   -0.2530   51.9867 H       1  ZINC000763800048    0.1200
     28 H28        -6.0687    0.7640   53.0614 H       1  ZINC000763800048    0.1200
     29 H29        -9.3632   -0.7339   52.5085 H       1  ZINC000763800048    0.1200
     30 H30       -11.0926   -0.9065   54.2514 H       1  ZINC000763800048    0.1300
     31 H31       -10.8093    0.2764   56.3906 H       1  ZINC000763800048    0.1400
     32 H32        -9.3289    2.5361   57.2882 H       1  ZINC000763800048    0.4100
     33 H33        -6.8529    2.8703   59.2930 H       1  ZINC000763800048    0.1300
     34 H34        -8.2791    2.3296   61.1831 H       1  ZINC000763800048    0.1400
     35 H35       -11.0552    2.1862   59.8768 H       1  ZINC000763800048    0.1400
     36 H36       -12.7810    0.4496   59.6544 H       1  ZINC000763800048    0.1400
     37 H37        -9.8115   -2.5872   60.0909 H       1  ZINC000763800048    0.1400
     38 H38        -8.0679   -0.8678   60.3086 H       1  ZINC000763800048    0.1400
     39 H39        -7.0510    1.8043   55.0371 H       1  ZINC000763800048    0.1300
@<TRIPOS>BOND
     1     1     2    1
     2     1    24    1
     3     1    25    1
     4     1    26    1
     5     2     3    1
     6     3     4    2
     7     3     5    1
     8     5     6    1
     9     5    27    1
    10     5    28    1
    11     6    23   ar
    12     6     7   ar
    13     7     8   ar
    14     7    29    1
    15     8     9   ar
    16     8    30    1
    17     9    10   ar
    18     9    31    1
    19    10    11    1
    20    10    23   ar
    21    11    12   am
    22    11    32    1
    23    12    13    2
    24    12    14    1
    25    14    15    2
    26    14    33    1
    27    15    16    1
    28    15    34    1
    29    16    22   ar
    30    16    17   ar
    31    17    18   ar
    32    17    35    1
    33    18    19   ar
    34    18    36    1
    35    19    20    1
    36    19    21   ar
    37    21    22   ar
    38    21    37    1
    39    22    38    1
    40    23    39    1
@<TRIPOS>SUBSTRUCTURE
     1 ZINC000763800048        1 TEMP              0 ****  ****    0 ROOT


##########                                Name:    ZINC001009116151
##########                DOCK_Rotatable_Bonds:                   6
##########                         Heavy_Atoms:                  25
##########                    Molecular_Weight:             342.481
##########                DOCK_Rotatable_Bonds:                   6
##########                       Formal_Charge:           0.0600006
##########                     HBond_Acceptors:                   4
##########                        HBond_Donors:                   1
##########                         Heavy_Atoms:                  25
##########                          Grid_Score:          -27.360821
##########                     Grid_vdw_energy:          -26.575603
##########                      Grid_es_energy:           -0.785218
##########           Internal_energy_repulsive:           11.842624

@<TRIPOS>MOLECULE
ZINC001009116151
 55 59 1 0 0
SMALL
USER_CHARGES


@<TRIPOS>ATOM
      1 O1        -12.7129    0.1156   59.1909 O.2     1  ZINC001009116151   -0.5400
      2 C2        -11.5334    0.0693   59.4695 C.2     1  ZINC001009116151    0.5200
      3 N3        -10.6985   -0.6977   58.7408 N.am    1  ZINC001009116151   -0.7300
      4 C4        -11.2167   -1.4802   57.6159 C.3     1  ZINC001009116151    0.1500
      5 C5        -10.8488   -0.7892   56.3014 C.3     1  ZINC001009116151   -0.1200
      6 H6        -11.6513   -0.2240   55.8275 H       1  ZINC001009116151    0.1100
      7 C7         -9.8518   -1.5016   55.3852 C.3     1  ZINC001009116151   -0.1700
      8 H8         -9.4893   -2.4938   55.6539 H       1  ZINC001009116151    0.1200
      9 C9         -9.8286   -1.1112   53.8917 C.3     1  ZINC001009116151    0.1300
     10 N10        -8.8972    0.0387   53.8202 N.am    1  ZINC001009116151   -0.6200
     11 C11        -7.9815    0.3028   52.8673 C.2     1  ZINC001009116151    0.5500
     12 O12        -7.8522   -0.4498   51.9252 O.2     1  ZINC001009116151   -0.5300
     13 C13        -7.1182    1.5336   52.9726 C.3     1  ZINC001009116151   -0.1200
     14 C14        -5.8239    1.3766   52.1412 C.3     1  ZINC001009116151   -0.0900
     15 C15        -6.1524    1.9895   50.7997 C.2     1  ZINC001009116151   -0.1800
     16 C16        -7.2222    2.7337   50.8724 C.2     1  ZINC001009116151   -0.1500
     17 C17        -7.7856    2.7412   52.2744 C.3     1  ZINC001009116151   -0.0900
     18 C18        -9.2009    0.8322   55.0338 C.3     1  ZINC001009116151    0.1200
     19 C19        -9.4262   -0.2426   56.1662 C.3     1  ZINC001009116151   -0.1600
     20 H20        -8.7189   -0.2587   56.9954 H       1  ZINC001009116151    0.1300
     21 C21       -11.0003    0.8742   60.6267 C.3     1  ZINC001009116151   -0.0700
     22 C22       -10.4270    2.1946   60.1083 C.3     1  ZINC001009116151   -0.1100
     23 C23        -9.8857    3.0118   61.2830 C.3     1  ZINC001009116151   -0.1100
     24 C24       -10.0983    2.2362   62.5846 C.3     1  ZINC001009116151   -0.0900
     25 C25       -11.5929    1.9799   62.7873 C.3     1  ZINC001009116151   -0.1100
     26 C26       -12.1341    1.1627   61.6126 C.3     1  ZINC001009116151   -0.0900
     27 C27        -9.3574    0.8997   62.5088 C.3     1  ZINC001009116151   -0.1100
     28 C28        -9.8986    0.0825   61.3339 C.3     1  ZINC001009116151   -0.1000
     29 H29        -9.7545   -0.7318   58.9611 H       1  ZINC001009116151    0.4000
     30 H30       -10.7801   -2.4787   57.6362 H       1  ZINC001009116151    0.0800
     31 H31       -12.3012   -1.5563   57.6953 H       1  ZINC001009116151    0.0700
     32 H32        -9.4570   -1.9393   53.2881 H       1  ZINC001009116151    0.0900
     33 H33       -10.8241   -0.8152   53.5607 H       1  ZINC001009116151    0.0800
     34 H34        -6.8899    1.7608   54.0140 H       1  ZINC001009116151    0.1100
     35 H35        -5.0017    1.9144   52.6133 H       1  ZINC001009116151    0.0900
     36 H36        -5.5725    0.3223   52.0256 H       1  ZINC001009116151    0.0800
     37 H37        -5.5773    1.8327   49.8991 H       1  ZINC001009116151    0.1300
     38 H38        -7.6486    3.2736   50.0398 H       1  ZINC001009116151    0.1300
     39 H39        -8.8680    2.6147   52.2494 H       1  ZINC001009116151    0.0900
     40 H40        -7.5225    3.6678   52.7844 H       1  ZINC001009116151    0.0900
     41 H41        -8.3558    1.4704   55.2919 H       1  ZINC001009116151    0.0900
     42 H42       -10.0983    1.4317   54.8812 H       1  ZINC001009116151    0.0800
     43 H43        -9.6192    1.9890   59.4059 H       1  ZINC001009116151    0.0700
     44 H44       -11.2119    2.7585   59.6043 H       1  ZINC001009116151    0.0700
     45 H45        -8.8208    3.1943   61.1386 H       1  ZINC001009116151    0.0700
     46 H46       -10.4135    3.9639   61.3371 H       1  ZINC001009116151    0.0700
     47 H47        -9.7126    2.8184   63.4216 H       1  ZINC001009116151    0.0700
     48 H48       -11.7443    1.4273   63.7147 H       1  ZINC001009116151    0.0700
     49 H49       -12.1208    2.9320   62.8414 H       1  ZINC001009116151    0.0700
     50 H50       -12.9191    1.7267   61.1087 H       1  ZINC001009116151    0.0700
     51 H51       -12.5427    0.2220   61.9819 H       1  ZINC001009116151    0.0700
     52 H52        -8.2924    1.0823   62.3643 H       1  ZINC001009116151    0.0700
     53 H53        -9.5088    0.3471   63.4361 H       1  ZINC001009116151    0.0700
     54 H54       -10.3070   -0.8581   61.7033 H       1  ZINC001009116151    0.0700
     55 H55        -9.0908   -0.1231   60.6316 H       1  ZINC001009116151    0.0700
@<TRIPOS>BOND
     1     1     2    2
     2     2     3   am
     3     2    21    1
     4     3     4    1
     5     3    29    1
     6     4     5    1
     7     4    30    1
     8     4    31    1
     9     5     6    1
    10     5    19    1
    11     5     7    1
    12     7     8    1
    13     7    19    1
    14     7     9    1
    15     9    10    1
    16     9    32    1
    17     9    33    1
    18    10    11   am
    19    10    18    1
    20    11    12    2
    21    11    13    1
    22    13    17    1
    23    13    14    1
    24    13    34    1
    25    14    15    1
    26    14    35    1
    27    14    36    1
    28    15    16    2
    29    15    37    1
    30    16    17    1
    31    16    38    1
    32    17    39    1
    33    17    40    1
    34    18    19    1
    35    18    41    1
    36    18    42    1
    37    19    20    1
    38    21    26    1
    39    21    28    1
    40    21    22    1
    41    22    23    1
    42    22    43    1
    43    22    44    1
    44    23    24    1
    45    23    45    1
    46    23    46    1
    47    24    25    1
    48    24    27    1
    49    24    47    1
    50    25    26    1
    51    25    48    1
    52    25    49    1
    53    26    50    1
    54    26    51    1
    55    27    28    1
    56    27    52    1
    57    27    53    1
    58    28    54    1
    59    28    55    1
@<TRIPOS>SUBSTRUCTURE
     1 ZINC001009116151        1 TEMP              0 ****  ****    0 ROOT


##########                                Name:    ZINC000543429378
##########                DOCK_Rotatable_Bonds:                   6
##########                         Heavy_Atoms:                  29
##########                    Molecular_Weight:             406.408
##########                DOCK_Rotatable_Bonds:                   6
##########                       Formal_Charge:           0.0100003
##########                     HBond_Acceptors:                   9
##########                        HBond_Donors:                   1
##########                         Heavy_Atoms:                  29
##########                          Grid_Score:          -27.322954
##########                     Grid_vdw_energy:          -26.362926
##########                      Grid_es_energy:           -0.960027
##########           Internal_energy_repulsive:           43.207470

@<TRIPOS>MOLECULE
ZINC000543429378
 50 53 1 0 0
SMALL
USER_CHARGES


@<TRIPOS>ATOM
      1 O1         -8.3628   -0.0483   56.1355 O.2     1  ZINC000543429378   -0.5100
      2 C2         -9.3562    0.5882   55.8545 C.2     1  ZINC000543429378    0.5200
      3 N3        -10.4396    0.5345   56.6544 N.am    1  ZINC000543429378   -0.6600
      4 C4        -10.4204   -0.2600   57.8060 C.ar    1  ZINC000543429378    0.1900
      5 C5         -9.4054   -0.1045   58.7411 C.ar    1  ZINC000543429378   -0.1600
      6 C6         -9.3867   -0.8887   59.8785 C.ar    1  ZINC000543429378   -0.0600
      7 C7        -10.3767   -1.8295   60.0885 C.ar    1  ZINC000543429378   -0.2100
      8 C8        -11.3936   -1.9892   59.1572 C.ar    1  ZINC000543429378    0.1300
      9 O9        -12.3665   -2.9149   59.3651 O.3     1  ZINC000543429378   -0.3100
     10 C10       -13.4413   -2.9489   58.4239 C.3     1  ZINC000543429378    0.6000
     11 F11       -14.3928   -3.8880   58.8363 F       1  ZINC000543429378   -0.1600
     12 F12       -14.0359   -1.6847   58.3491 F       1  ZINC000543429378   -0.1300
     13 F13       -12.9477   -3.3073   57.1650 F       1  ZINC000543429378   -0.1600
     14 C14       -11.4188   -1.2005   58.0179 C.ar    1  ZINC000543429378   -0.1300
     15 C15        -9.3769    1.4440   54.6142 C.3     1  ZINC000543429378    0.0700
     16 H16       -10.4049    1.6963   54.3544 H       1  ZINC000543429378    0.1200
     17 C17        -8.7040    0.6863   53.4370 C.3     1  ZINC000543429378   -0.1200
     18 C18        -7.9493    1.8185   52.7232 C.3     1  ZINC000543429378   -0.1000
     19 H19        -8.6256    2.4155   52.1115 H       1  ZINC000543429378    0.0900
     20 C20        -6.7329    1.3835   51.9238 C.3     1  ZINC000543429378   -0.1100
     21 C21        -6.0514    2.6576   51.3998 C.3     1  ZINC000543429378   -0.1200
     22 C22        -5.6550    3.5896   52.5410 C.3     1  ZINC000543429378   -0.1100
     23 C23        -6.8602    3.9245   53.4354 C.3     1  ZINC000543429378   -0.0900
     24 C24        -7.4371    2.6252   53.9474 C.3     1  ZINC000543429378    0.0700
     25 H25        -6.6486    2.0469   54.4291 H       1  ZINC000543429378    0.0900
     26 N26        -8.5926    2.6857   54.8423 N.3     1  ZINC000543429378   -0.4300
     27 C27        -8.1922    2.7715   56.1645 C.ar    1  ZINC000543429378    0.5000
     28 N28        -9.0202    3.2918   57.0584 N.ar    1  ZINC000543429378   -0.5300
     29 C29        -8.6687    3.3879   58.3301 C.ar    1  ZINC000543429378    0.1800
     30 C30        -7.4182    2.9365   58.7219 C.ar    1  ZINC000543429378   -0.2500
     31 C31        -6.5772    2.3977   57.7609 C.ar    1  ZINC000543429378    0.1800
     32 N32        -6.9922    2.3262   56.5070 N.ar    1  ZINC000543429378   -0.5300
     33 H33       -11.2327    1.0467   56.4317 H       1  ZINC000543429378    0.4200
     34 H34        -8.6300    0.6296   58.5789 H       1  ZINC000543429378    0.1400
     35 H35        -8.5966   -0.7665   60.6045 H       1  ZINC000543429378    0.1400
     36 H36       -10.3591   -2.4415   60.9781 H       1  ZINC000543429378    0.1400
     37 H37       -12.2094   -1.3234   57.2923 H       1  ZINC000543429378    0.1500
     38 H38        -8.0123   -0.0713   53.8055 H       1  ZINC000543429378    0.0800
     39 H39        -9.4524    0.2424   52.7804 H       1  ZINC000543429378    0.0900
     40 H40        -6.0453    0.8322   52.5653 H       1  ZINC000543429378    0.0700
     41 H41        -7.0433    0.7579   51.0870 H       1  ZINC000543429378    0.0700
     42 H42        -5.1581    2.3795   50.8404 H       1  ZINC000543429378    0.0600
     43 H43        -6.7381    3.1811   50.7346 H       1  ZINC000543429378    0.0600
     44 H44        -4.8860    3.1073   53.1445 H       1  ZINC000543429378    0.0600
     45 H45        -5.2527    4.5129   52.1241 H       1  ZINC000543429378    0.0700
     46 H46        -6.5393    4.5433   54.2734 H       1  ZINC000543429378    0.0700
     47 H47        -7.6183    4.4499   52.8545 H       1  ZINC000543429378    0.0700
     48 H48        -9.3478    3.8133   59.0541 H       1  ZINC000543429378    0.1600
     49 H49        -7.1058    3.0034   59.7536 H       1  ZINC000543429378    0.1400
     50 H50        -5.5962    2.0373   58.0332 H       1  ZINC000543429378    0.1600
@<TRIPOS>BOND
     1     1     2    2
     2     2     3   am
     3     2    15    1
     4     3     4    1
     5     3    33    1
     6     4    14   ar
     7     4     5   ar
     8     5     6   ar
     9     5    34    1
    10     6     7   ar
    11     6    35    1
    12     7     8   ar
    13     7    36    1
    14     8     9    1
    15     8    14   ar
    16     9    10    1
    17    10    11    1
    18    10    12    1
    19    10    13    1
    20    14    37    1
    21    15    16    1
    22    15    26    1
    23    15    17    1
    24    17    18    1
    25    17    38    1
    26    17    39    1
    27    18    19    1
    28    18    24    1
    29    18    20    1
    30    20    21    1
    31    20    40    1
    32    20    41    1
    33    21    22    1
    34    21    42    1
    35    21    43    1
    36    22    23    1
    37    22    44    1
    38    22    45    1
    39    23    24    1
    40    23    46    1
    41    23    47    1
    42    24    25    1
    43    24    26    1
    44    26    27    1
    45    27    32   ar
    46    27    28   ar
    47    28    29   ar
    48    29    30   ar
    49    29    48    1
    50    30    31   ar
    51    30    49    1
    52    31    32   ar
    53    31    50    1
@<TRIPOS>SUBSTRUCTURE
     1 ZINC000543429378        1 TEMP              0 ****  ****    0 ROOT


##########                                Name:    ZINC001248546333
##########                DOCK_Rotatable_Bonds:                   6
##########                         Heavy_Atoms:                  27
##########                    Molecular_Weight:             378.397
##########                DOCK_Rotatable_Bonds:                   6
##########                       Formal_Charge:         3.94881e-07
##########                     HBond_Acceptors:                   8
##########                        HBond_Donors:                   1
##########                         Heavy_Atoms:                  27
##########                          Grid_Score:          -27.320570
##########                     Grid_vdw_energy:          -27.416763
##########                      Grid_es_energy:            0.096193
##########           Internal_energy_repulsive:           29.710184

@<TRIPOS>MOLECULE
ZINC001248546333
 48 50 1 0 0
SMALL
USER_CHARGES


@<TRIPOS>ATOM
      1 C1        -15.9890    3.0276   66.5058 C.3     1  ZINC001248546333   -0.1200
      2 C2        -14.4846    2.9939   66.5898 C.ar    1  ZINC001248546333   -0.0800
      3 C3        -13.8530    3.3032   67.7809 C.ar    1  ZINC001248546333   -0.1200
      4 C4        -12.4723    3.2746   67.8665 C.ar    1  ZINC001248546333   -0.1100
      5 C5        -11.7167    2.9365   66.7628 C.ar    1  ZINC001248546333   -0.1100
      6 C6        -12.3479    2.6229   65.5584 C.ar    1  ZINC001248546333   -0.0600
      7 C7        -11.5445    2.2597   64.3719 C.2     1  ZINC001248546333   -0.0600
      8 C8        -10.2397    2.2414   64.4991 C.2     1  ZINC001248546333   -0.1700
      9 C9         -9.3023    1.9074   63.3720 C.3     1  ZINC001248546333    0.1500
     10 N10       -10.0760    1.3663   62.2454 N.am    1  ZINC001248546333   -0.6300
     11 C11        -9.6498    0.2902   61.5550 C.2     1  ZINC001248546333    0.7200
     12 O12        -8.6059   -0.2533   61.8599 O.2     1  ZINC001248546333   -0.5800
     13 N13       -10.3807   -0.1835   60.5264 N.am    1  ZINC001248546333   -0.7500
     14 C14        -9.9174   -1.3532   59.7759 C.3     1  ZINC001248546333    0.2000
     15 C15       -11.1032   -2.0790   59.1945 C.2     1  ZINC001248546333    0.0700
     16 C16       -12.4008   -1.8767   59.5206 C.2     1  ZINC001248546333   -0.2000
     17 C17       -13.1785   -2.7509   58.7540 C.2     1  ZINC001248546333   -0.0200
     18 C18       -14.6807   -2.8640   58.7948 C.3     1  ZINC001248546333    0.5600
     19 F19       -15.1357   -2.5696   60.0846 F       1  ZINC001248546333   -0.1700
     20 F20       -15.2412   -1.9612   57.8850 F       1  ZINC001248546333   -0.1700
     21 F21       -15.0597   -4.1665   58.4527 F       1  ZINC001248546333   -0.1600
     22 N22       -12.3766   -3.4526   57.9949 N.2     1  ZINC001248546333   -0.2200
     23 N23       -11.0617   -3.0430   58.2510 N.pl3   1  ZINC001248546333   -0.3400
     24 C24        -9.8540   -3.5737   57.6137 C.3     1  ZINC001248546333    0.0900
     25 C25       -11.3358    2.0478   61.9009 C.3     1  ZINC001248546333    0.1300
     26 C26       -12.2768    1.9312   63.1050 C.3     1  ZINC001248546333   -0.1000
     27 C27       -13.7406    2.6489   65.4801 C.ar    1  ZINC001248546333   -0.1100
     28 H28       -16.3895    2.0481   66.7670 H       1  ZINC001248546333    0.0700
     29 H29       -16.3750    3.7748   67.1991 H       1  ZINC001248546333    0.0700
     30 H30       -16.2904    3.2844   65.4901 H       1  ZINC001248546333    0.0700
     31 H31       -14.4400    3.5686   68.6478 H       1  ZINC001248546333    0.1200
     32 H32       -11.9851    3.5179   68.7991 H       1  ZINC001248546333    0.1200
     33 H33       -10.6391    2.9149   66.8308 H       1  ZINC001248546333    0.1200
     34 H34        -9.8161    2.4788   65.4637 H       1  ZINC001248546333    0.1200
     35 H35        -8.7785    2.8090   63.0546 H       1  ZINC001248546333    0.0800
     36 H36        -8.5793    1.1640   63.7078 H       1  ZINC001248546333    0.0800
     37 H37       -11.2136    0.2501   60.2831 H       1  ZINC001248546333    0.4000
     38 H38        -9.2583   -1.0301   58.9701 H       1  ZINC001248546333    0.1000
     39 H39        -9.3740   -2.0215   60.4438 H       1  ZINC001248546333    0.0900
     40 H40       -12.7706   -1.1663   60.2450 H       1  ZINC001248546333    0.1700
     41 H41        -9.6322   -2.9953   56.7168 H       1  ZINC001248546333    0.0900
     42 H42        -9.0164   -3.5037   58.3076 H       1  ZINC001248546333    0.1000
     43 H43       -10.0150   -4.6171   57.3426 H       1  ZINC001248546333    0.1000
     44 H44       -11.1393    3.0975   61.6825 H       1  ZINC001248546333    0.0700
     45 H45       -11.7887    1.5686   61.0330 H       1  ZINC001248546333    0.1000
     46 H46       -12.6670    0.9149   63.1604 H       1  ZINC001248546333    0.0800
     47 H47       -13.1069    2.6269   62.9824 H       1  ZINC001248546333    0.0900
     48 H48       -14.2350    2.4073   64.5507 H       1  ZINC001248546333    0.1200
@<TRIPOS>BOND
     1     1     2    1
     2     1    28    1
     3     1    29    1
     4     1    30    1
     5     2    27   ar
     6     2     3   ar
     7     3     4   ar
     8     3    31    1
     9     4     5   ar
    10     4    32    1
    11     5     6   ar
    12     5    33    1
    13     6     7    1
    14     6    27   ar
    15     7    26    1
    16     7     8    2
    17     8     9    1
    18     8    34    1
    19     9    10    1
    20     9    35    1
    21     9    36    1
    22    10    11   am
    23    10    25    1
    24    11    12    2
    25    11    13   am
    26    13    14    1
    27    13    37    1
    28    14    15    1
    29    14    38    1
    30    14    39    1
    31    15    23    1
    32    15    16    2
    33    16    17    1
    34    16    40    1
    35    17    18    1
    36    17    22    2
    37    18    19    1
    38    18    20    1
    39    18    21    1
    40    22    23    1
    41    23    24    1
    42    24    41    1
    43    24    42    1
    44    24    43    1
    45    25    26    1
    46    25    44    1
    47    25    45    1
    48    26    46    1
    49    26    47    1
    50    27    48    1
@<TRIPOS>SUBSTRUCTURE
     1 ZINC001248546333        1 TEMP              0 ****  ****    0 ROOT


##########                                Name:    ZINC000477669194
##########                DOCK_Rotatable_Bonds:                   6
##########                         Heavy_Atoms:                  26
##########                    Molecular_Weight:             387.483
##########                DOCK_Rotatable_Bonds:                   6
##########                       Formal_Charge:         4.47035e-07
##########                     HBond_Acceptors:                   8
##########                        HBond_Donors:                   2
##########                         Heavy_Atoms:                  26
##########                          Grid_Score:          -27.248213
##########                     Grid_vdw_energy:          -27.287016
##########                      Grid_es_energy:            0.038803
##########           Internal_energy_repulsive:           39.488647

@<TRIPOS>MOLECULE
ZINC000477669194
 43 45 1 0 0
SMALL
USER_CHARGES


@<TRIPOS>ATOM
      1 C1         -9.4957    1.9057   59.6623 C.3     1  ZINC000477669194   -0.0800
      2 C2        -10.7377    1.1058   59.9603 C.2     1  ZINC000477669194    0.0500
      3 N3        -11.1156    0.0643   59.3033 N.2     1  ZINC000477669194   -0.4900
      4 C4        -12.2354   -0.5249   59.6970 C.2     1  ZINC000477669194    0.1200
      5 C5        -12.7887   -1.7309   59.0345 C.ar    1  ZINC000477669194   -0.0600
      6 C6        -13.9112   -2.3650   59.5606 C.ar    1  ZINC000477669194   -0.0800
      7 C7        -14.4226   -3.4877   58.9403 C.ar    1  ZINC000477669194   -0.1400
      8 C8        -13.8243   -3.9863   57.7969 C.ar    1  ZINC000477669194   -0.0900
      9 C9        -12.7093   -3.3657   57.2655 C.ar    1  ZINC000477669194   -0.1300
     10 C10       -12.1884   -2.2338   57.8742 C.ar    1  ZINC000477669194    0.1800
     11 N11       -11.0614   -1.6046   57.3381 N.am    1  ZINC000477669194   -0.6500
     12 C12       -11.1666   -0.8877   56.2017 C.2     1  ZINC000477669194    0.5600
     13 O13       -12.2421   -0.7881   55.6429 O.2     1  ZINC000477669194   -0.5200
     14 C14        -9.9773   -0.2237   55.6359 C.ar    1  ZINC000477669194   -0.1500
     15 C15        -9.1163    0.4986   56.4675 C.ar    1  ZINC000477669194   -0.0600
     16 C16        -8.0073    1.1166   55.9367 C.ar    1  ZINC000477669194   -0.1400
     17 C17        -7.7422    1.0231   54.5732 C.ar    1  ZINC000477669194    0.1700
     18 N18        -6.6207    1.6487   54.0399 N.am    1  ZINC000477669194   -1.0600
     19 S19        -6.3574    1.6235   52.4052 S.o2    1  ZINC000477669194    2.6100
     20 C20        -7.8133    2.4440   51.6995 C.3     1  ZINC000477669194   -0.6700
     21 O21        -5.1974    2.4240   52.2246 O.2     1  ZINC000477669194   -0.9400
     22 O22        -6.3533    0.2420   52.0722 O.2     1  ZINC000477669194   -0.9500
     23 C23        -8.5974    0.3041   53.7426 C.ar    1  ZINC000477669194   -0.1600
     24 C24        -9.7054   -0.3202   54.2680 C.ar    1  ZINC000477669194   -0.0300
     25 C25       -12.8273    0.0687   60.7533 C.2     1  ZINC000477669194   -0.2600
     26 S26       -11.8382    1.4492   61.2221 S.3     1  ZINC000477669194    0.1500
     27 H27        -9.4143    2.7285   60.3725 H       1  ZINC000477669194    0.0800
     28 H28        -8.6199    1.2626   59.7492 H       1  ZINC000477669194    0.0900
     29 H29        -9.5546    2.3044   58.6495 H       1  ZINC000477669194    0.0900
     30 H30       -14.3811   -1.9794   60.4533 H       1  ZINC000477669194    0.1300
     31 H31       -15.2931   -3.9788   59.3496 H       1  ZINC000477669194    0.1300
     32 H32       -14.2300   -4.8647   57.3173 H       1  ZINC000477669194    0.1300
     33 H33       -12.2463   -3.7600   56.3730 H       1  ZINC000477669194    0.1500
     34 H34       -10.2036   -1.6841   57.7838 H       1  ZINC000477669194    0.4200
     35 H35        -9.3215    0.5719   57.5253 H       1  ZINC000477669194    0.1300
     36 H36        -7.3420    1.6751   56.5784 H       1  ZINC000477669194    0.1400
     37 H37        -5.9926    2.0999   54.6254 H       1  ZINC000477669194    0.4300
     38 H38        -7.8305    3.4874   52.0144 H       1  ZINC000477669194    0.1300
     39 H39        -7.7672    2.3936   50.6117 H       1  ZINC000477669194    0.1400
     40 H40        -8.7168    1.9442   52.0485 H       1  ZINC000477669194    0.1300
     41 H41        -8.3888    0.2330   52.6852 H       1  ZINC000477669194    0.1700
     42 H42       -10.3682   -0.8780   53.6231 H       1  ZINC000477669194    0.1500
     43 H43       -13.7431   -0.2482   61.2298 H       1  ZINC000477669194    0.1800
@<TRIPOS>BOND
     1     1     2    1
     2     1    27    1
     3     1    28    1
     4     1    29    1
     5     2    26    1
     6     2     3    2
     7     3     4    1
     8     4     5    1
     9     4    25    2
    10     5    10   ar
    11     5     6   ar
    12     6     7   ar
    13     6    30    1
    14     7     8   ar
    15     7    31    1
    16     8     9   ar
    17     8    32    1
    18     9    10   ar
    19     9    33    1
    20    10    11    1
    21    11    12   am
    22    11    34    1
    23    12    13    2
    24    12    14    1
    25    14    24   ar
    26    14    15   ar
    27    15    16   ar
    28    15    35    1
    29    16    17   ar
    30    16    36    1
    31    17    18    1
    32    17    23   ar
    33    18    19   am
    34    18    37    1
    35    19    20    1
    36    19    21    2
    37    19    22    2
    38    20    38    1
    39    20    39    1
    40    20    40    1
    41    23    24   ar
    42    23    41    1
    43    24    42    1
    44    25    26    1
    45    25    43    1
@<TRIPOS>SUBSTRUCTURE
     1 ZINC000477669194        1 TEMP              0 ****  ****    0 ROOT


##########                                Name:    ZINC001362451754
##########                DOCK_Rotatable_Bonds:                   6
##########                         Heavy_Atoms:                  22
##########                    Molecular_Weight:             339.846
##########                DOCK_Rotatable_Bonds:                   6
##########                       Formal_Charge:         -0.00999987
##########                     HBond_Acceptors:                   7
##########                        HBond_Donors:                   1
##########                         Heavy_Atoms:                  22
##########                          Grid_Score:          -27.247339
##########                     Grid_vdw_energy:          -25.599722
##########                      Grid_es_energy:           -1.647617
##########           Internal_energy_repulsive:           25.958218

@<TRIPOS>MOLECULE
ZINC001362451754
 40 42 1 0 0
SMALL
USER_CHARGES


@<TRIPOS>ATOM
      1 C1         -9.9538    0.9935   57.9891 C.3     1  ZINC001362451754   -0.1700
      2 C2         -9.4469   -0.2759   58.6768 C.3     1  ZINC001362451754    0.1400
      3 H3         -8.7308   -0.7875   58.0339 H       1  ZINC001362451754    0.0800
      4 C4         -8.7806    0.0857   60.0210 C.3     1  ZINC001362451754   -0.1000
      5 H5         -7.9292   -0.5660   60.2170 H       1  ZINC001362451754    0.1000
      6 C6         -8.3542    1.5550   60.0359 C.3     1  ZINC001362451754    0.0900
      7 O7         -7.2909    1.7520   59.1018 O.3     1  ZINC001362451754   -0.5700
      8 C8         -9.9140   -0.1674   61.0499 C.3     1  ZINC001362451754   -0.1200
      9 C9        -10.6303   -1.3914   60.4319 C.3     1  ZINC001362451754    0.0900
     10 N10       -10.5768   -1.1678   58.9757 N.am    1  ZINC001362451754   -0.6100
     11 C11       -11.4266   -1.6899   58.0691 C.2     1  ZINC001362451754    0.6100
     12 O12       -12.3338   -2.4151   58.4325 O.2     1  ZINC001362451754   -0.5200
     13 C13       -11.2580   -1.3841   56.6455 C.2     1  ZINC001362451754   -0.2500
     14 C14       -12.1169   -0.6390   55.8876 C.2     1  ZINC001362451754   -0.0500
     15 C15       -11.7182   -0.5146   54.5778 C.2     1  ZINC001362451754   -0.1100
     16 C16       -10.5677   -1.1268   54.2741 C.2     1  ZINC001362451754   -0.2500
     17 C17        -9.9339   -1.1242   52.9069 C.3     1  ZINC001362451754    0.2100
     18 N18        -8.8614   -0.1269   52.8676 N.pl3   1  ZINC001362451754   -0.3700
     19 C19        -7.7606   -0.1743   52.0869 C.2     1  ZINC001362451754    0.0700
     20 C20        -7.0238    0.9315   52.3457 C.2     1  ZINC001362451754   -0.1800
     21 Cl21       -5.5126    1.3496   51.6004 Cl      1  ZINC001362451754   -0.0400
     22 C22        -7.6926    1.6748   53.3245 C.2     1  ZINC001362451754    0.0700
     23 N23        -8.7938    1.0414   53.6377 N.2     1  ZINC001362451754   -0.2700
     24 S24        -9.9183   -1.9176   55.6393 S.3     1  ZINC001362451754    0.2300
     25 H25       -10.6735    1.4946   58.6364 H       1  ZINC001362451754    0.0600
     26 H26        -9.1143    1.6608   57.7940 H       1  ZINC001362451754    0.0700
     27 H27       -10.4345    0.7293   57.0473 H       1  ZINC001362451754    0.0700
     28 H28        -9.2017    2.1822   59.7593 H       1  ZINC001362451754    0.0500
     29 H29        -8.0140    1.8244   61.0359 H       1  ZINC001362451754    0.0500
     30 H30        -6.5275    2.2194   59.4677 H       1  ZINC001362451754    0.3800
     31 H31        -9.5045   -0.4066   62.0313 H       1  ZINC001362451754    0.0900
     32 H32       -10.5874    0.6878   61.1077 H       1  ZINC001362451754    0.0800
     33 H33       -11.6652   -1.4370   60.7710 H       1  ZINC001362451754    0.0800
     34 H34       -10.1033   -2.3087   60.6944 H       1  ZINC001362451754    0.0800
     35 H35       -13.0212   -0.1957   56.2776 H       1  ZINC001362451754    0.1600
     36 H36       -12.2899    0.0398   53.8482 H       1  ZINC001362451754    0.1500
     37 H37        -9.5206   -2.1105   52.6960 H       1  ZINC001362451754    0.1100
     38 H38       -10.6866   -0.8779   52.1579 H       1  ZINC001362451754    0.1100
     39 H39        -7.5136   -0.9533   51.3809 H       1  ZINC001362451754    0.1800
     40 H40        -7.3575    2.6100   53.7485 H       1  ZINC001362451754    0.1900
@<TRIPOS>BOND
     1     1     2    1
     2     1    25    1
     3     1    26    1
     4     1    27    1
     5     2     3    1
     6     2    10    1
     7     2     4    1
     8     4     5    1
     9     4     6    1
    10     4     8    1
    11     6     7    1
    12     6    28    1
    13     6    29    1
    14     7    30    1
    15     8     9    1
    16     8    31    1
    17     8    32    1
    18     9    10    1
    19     9    33    1
    20     9    34    1
    21    10    11   am
    22    11    12    2
    23    11    13    1
    24    13    24    1
    25    13    14    2
    26    14    15    1
    27    14    35    1
    28    15    16    2
    29    15    36    1
    30    16    17    1
    31    16    24    1
    32    17    18    1
    33    17    37    1
    34    17    38    1
    35    18    23    1
    36    18    19    1
    37    19    20    2
    38    19    39    1
    39    20    21    1
    40    20    22    1
    41    22    23    2
    42    22    40    1
@<TRIPOS>SUBSTRUCTURE
     1 ZINC001362451754        1 TEMP              0 ****  ****    0 ROOT


##########                                Name:    ZINC000949401225
##########                DOCK_Rotatable_Bonds:                   7
##########                         Heavy_Atoms:                  24
##########                    Molecular_Weight:             332.403
##########                DOCK_Rotatable_Bonds:                   7
##########                       Formal_Charge:                0.03
##########                     HBond_Acceptors:                   7
##########                        HBond_Donors:                   1
##########                         Heavy_Atoms:                  24
##########                          Grid_Score:          -27.237484
##########                     Grid_vdw_energy:          -27.469526
##########                      Grid_es_energy:            0.232043
##########           Internal_energy_repulsive:           13.085266

@<TRIPOS>MOLECULE
ZINC000949401225
 48 50 1 0 0
SMALL
USER_CHARGES


@<TRIPOS>ATOM
      1 C1         -8.5008   -0.2528   65.0362 C.3     1  ZINC000949401225    0.0700
      2 N2         -9.0576    0.0909   63.7255 N.pl3   1  ZINC000949401225   -0.4500
      3 C3        -10.2391    0.7439   63.5271 C.2     1  ZINC000949401225   -0.0100
      4 C4        -10.4376    0.8917   62.2052 C.2     1  ZINC000949401225   -0.1700
      5 C5         -9.2813    0.2780   61.5434 C.2     1  ZINC000949401225   -0.2400
      6 C6         -9.0363    0.1867   60.0941 C.2     1  ZINC000949401225    0.5900
      7 O7         -7.9480   -0.1671   59.6824 O.2     1  ZINC000949401225   -0.5500
      8 N8        -10.0183    0.4954   59.2241 N.am    1  ZINC000949401225   -0.7300
      9 C9         -9.7742    0.4063   57.7823 C.3     1  ZINC000949401225    0.1200
     10 C10       -11.0330   -0.1101   57.0827 C.3     1  ZINC000949401225    0.1200
     11 H11       -11.0545   -1.1969   57.0023 H       1  ZINC000949401225    0.1000
     12 C12       -12.3318    0.4873   57.6420 C.3     1  ZINC000949401225   -0.1500
     13 C13       -12.7498    0.5038   56.1651 C.3     1  ZINC000949401225    0.1000
     14 N14       -11.3222    0.5769   55.8149 N.am    1  ZINC000949401225   -0.6400
     15 C15       -10.5988    1.0619   54.7863 C.2     1  ZINC000949401225    0.5500
     16 O16       -11.1567    1.5971   53.8518 O.2     1  ZINC000949401225   -0.5200
     17 C17        -9.0969    0.9391   54.7974 C.3     1  ZINC000949401225   -0.1400
     18 C18        -8.5673    1.0292   53.3648 C.3     1  ZINC000949401225    0.1500
     19 H19        -9.1021    1.8027   52.8134 H       1  ZINC000949401225    0.0900
     20 C20        -7.0519    1.3295   53.3730 C.3     1  ZINC000949401225   -0.1200
     21 C21        -6.5627    0.5158   52.1525 C.3     1  ZINC000949401225   -0.1600
     22 C22        -7.5969   -0.5772   51.9966 C.2     1  ZINC000949401225    0.5200
     23 O23        -7.4469   -1.5871   51.3420 O.2     1  ZINC000949401225   -0.5300
     24 N24        -8.7081   -0.2658   52.6888 N.am    1  ZINC000949401225   -0.6200
     25 C25        -9.9019   -1.1120   52.7600 C.3     1  ZINC000949401225    0.0900
     26 C26        -8.4737   -0.1873   62.5443 C.2     1  ZINC000949401225    0.0800
     27 H27        -7.8736    0.5653   65.3904 H       1  ZINC000949401225    0.0800
     28 H28        -9.3132   -0.4202   65.7435 H       1  ZINC000949401225    0.0900
     29 H29        -7.9016   -1.1592   64.9500 H       1  ZINC000949401225    0.0900
     30 H30       -10.9060    1.0861   64.3046 H       1  ZINC000949401225    0.1700
     31 H31       -11.2807    1.3672   61.7262 H       1  ZINC000949401225    0.1500
     32 H32       -10.8866    0.7764   59.5525 H       1  ZINC000949401225    0.4000
     33 H33        -9.5221    1.3934   57.3948 H       1  ZINC000949401225    0.0700
     34 H34        -8.9475   -0.2792   57.5954 H       1  ZINC000949401225    0.0900
     35 H35       -12.9085   -0.1989   58.2620 H       1  ZINC000949401225    0.1000
     36 H36       -12.2144    1.4765   58.0843 H       1  ZINC000949401225    0.1000
     37 H37       -13.2289   -0.4195   55.8393 H       1  ZINC000949401225    0.0900
     38 H38       -13.3126    1.3936   55.8832 H       1  ZINC000949401225    0.0800
     39 H39        -8.6708    1.7458   55.3937 H       1  ZINC000949401225    0.1000
     40 H40        -8.8141   -0.0208   55.2295 H       1  ZINC000949401225    0.1000
     41 H41        -6.8645    2.3940   53.2326 H       1  ZINC000949401225    0.1000
     42 H42        -6.5883    0.9712   54.2920 H       1  ZINC000949401225    0.0800
     43 H43        -6.5340    1.1437   51.2620 H       1  ZINC000949401225    0.1100
     44 H44        -5.5804    0.0863   52.3494 H       1  ZINC000949401225    0.1000
     45 H45        -9.7120   -2.0524   52.2426 H       1  ZINC000949401225    0.0800
     46 H46       -10.1424   -1.3138   53.8039 H       1  ZINC000949401225    0.0600
     47 H47       -10.7393   -0.5994   52.2867 H       1  ZINC000949401225    0.0600
     48 H48        -7.5311   -0.6971   62.4102 H       1  ZINC000949401225    0.1800
@<TRIPOS>BOND
     1     1     2    1
     2     1    27    1
     3     1    28    1
     4     1    29    1
     5     2    26    1
     6     2     3    1
     7     3     4    2
     8     3    30    1
     9     4     5    1
    10     4    31    1
    11     5     6    1
    12     5    26    2
    13     6     7    2
    14     6     8   am
    15     8     9    1
    16     8    32    1
    17     9    10    1
    18     9    33    1
    19     9    34    1
    20    10    11    1
    21    10    14    1
    22    10    12    1
    23    12    13    1
    24    12    35    1
    25    12    36    1
    26    13    14    1
    27    13    37    1
    28    13    38    1
    29    14    15   am
    30    15    16    2
    31    15    17    1
    32    17    18    1
    33    17    39    1
    34    17    40    1
    35    18    19    1
    36    18    24    1
    37    18    20    1
    38    20    21    1
    39    20    41    1
    40    20    42    1
    41    21    22    1
    42    21    43    1
    43    21    44    1
    44    22    23    2
    45    22    24   am
    46    24    25    1
    47    25    45    1
    48    25    46    1
    49    25    47    1
    50    26    48    1
@<TRIPOS>SUBSTRUCTURE
     1 ZINC000949401225        1 TEMP              0 ****  ****    0 ROOT


##########                                Name:    ZINC000288921983
##########                DOCK_Rotatable_Bonds:                   6
##########                         Heavy_Atoms:                  26
##########                    Molecular_Weight:             356.428
##########                DOCK_Rotatable_Bonds:                   6
##########                       Formal_Charge:           0.0199997
##########                     HBond_Acceptors:                   8
##########                        HBond_Donors:                   1
##########                         Heavy_Atoms:                  26
##########                          Grid_Score:          -27.236614
##########                     Grid_vdw_energy:          -26.367580
##########                      Grid_es_energy:           -0.869035
##########           Internal_energy_repulsive:           59.685032

@<TRIPOS>MOLECULE
ZINC000288921983
 50 53 1 0 0
SMALL
USER_CHARGES


@<TRIPOS>ATOM
      1 C1         -7.0630    1.3746   52.4453 C.3     1  ZINC000288921983   -0.1400
      2 C2         -8.3746    0.7893   52.9726 C.3     1  ZINC000288921983   -0.0500
      3 C3         -8.5041    1.0911   54.4434 C.ar    1  ZINC000288921983    0.3000
      4 N4         -7.4297    1.0360   55.2047 N.ar    1  ZINC000288921983   -0.5000
      5 C5         -7.5014    1.2941   56.5001 C.ar    1  ZINC000288921983    0.1300
      6 C6         -8.7341    1.6272   57.0552 C.ar    1  ZINC000288921983    0.0500
      7 N7         -8.8542    1.9081   58.4214 N.am    1  ZINC000288921983   -0.6700
      8 C8         -9.4339    1.0125   59.2451 C.2     1  ZINC000288921983    0.7100
      9 O9         -9.8526   -0.0393   58.8016 O.2     1  ZINC000288921983   -0.5500
     10 N10        -9.5496    1.2829   60.5603 N.am    1  ZINC000288921983   -0.6200
     11 C11        -9.0487    2.5496   61.1110 C.3     1  ZINC000288921983    0.1100
     12 C12       -10.1797    3.2312   61.8876 C.3     1  ZINC000288921983   -0.1400
     13 C13       -10.7278    2.2623   62.9379 C.3     1  ZINC000288921983   -0.1200
     14 C14       -11.2972    1.0232   62.2433 C.3     1  ZINC000288921983   -0.1300
     15 C15       -10.1843    0.3192   61.4697 C.3     1  ZINC000288921983    0.2700
     16 H16        -9.4387   -0.0616   62.1676 H       1  ZINC000288921983    0.1100
     17 C17       -10.7649   -0.8236   60.6772 C.2     1  ZINC000288921983    0.1700
     18 N18       -10.2281   -1.9992   60.5135 N.2     1  ZINC000288921983   -0.2500
     19 N19       -10.9996   -2.7226   59.7806 N.2     1  ZINC000288921983   -0.2700
     20 C20       -12.0549   -2.0330   59.4520 C.2     1  ZINC000288921983    0.1800
     21 C21       -13.2033   -2.5111   58.6013 C.3     1  ZINC000288921983   -0.0300
     22 C22       -14.3939   -3.0431   59.4162 C.3     1  ZINC000288921983   -0.1200
     23 C23       -14.9308   -1.6021   59.4250 C.3     1  ZINC000288921983   -0.1400
     24 C24       -14.1327   -1.3805   58.1293 C.3     1  ZINC000288921983   -0.1200
     25 O25       -11.9338   -0.8189   60.0148 O.3     1  ZINC000288921983   -0.2200
     26 C26        -9.8439    1.6741   56.2158 C.ar    1  ZINC000288921983    0.1600
     27 N27        -9.6874    1.4077   54.9297 N.ar    1  ZINC000288921983   -0.5000
     28 H28        -6.9694    1.1563   51.3815 H       1  ZINC000288921983    0.0700
     29 H29        -7.0602    2.4541   52.5963 H       1  ZINC000288921983    0.0600
     30 H30        -6.2250    0.9304   52.9825 H       1  ZINC000288921983    0.0600
     31 H31        -9.2127    1.2334   52.4354 H       1  ZINC000288921983    0.0900
     32 H32        -8.3774   -0.2902   52.8216 H       1  ZINC000288921983    0.0900
     33 H33        -6.6170    1.2466   57.1180 H       1  ZINC000288921983    0.1700
     34 H34        -8.5202    2.7473   58.7752 H       1  ZINC000288921983    0.4100
     35 H35        -8.2127    2.3514   61.7818 H       1  ZINC000288921983    0.0800
     36 H36        -8.7217    3.1977   60.2978 H       1  ZINC000288921983    0.0800
     37 H37        -9.7955    4.1238   62.3814 H       1  ZINC000288921983    0.0900
     38 H38       -10.9770    3.5105   61.1989 H       1  ZINC000288921983    0.0700
     39 H39        -9.9244    1.9642   63.6114 H       1  ZINC000288921983    0.0700
     40 H40       -11.5163    2.7533   63.5084 H       1  ZINC000288921983    0.0800
     41 H41       -11.7084    0.3442   62.9903 H       1  ZINC000288921983    0.0900
     42 H42       -12.0841    1.3233   61.5513 H       1  ZINC000288921983    0.0900
     43 H43       -12.8871   -3.1794   57.8004 H       1  ZINC000288921983    0.1000
     44 H44       -15.0241   -3.7404   58.8641 H       1  ZINC000288921983    0.1000
     45 H45       -14.1171   -3.4119   60.4038 H       1  ZINC000288921983    0.0800
     46 H46       -16.0103   -1.5375   59.2893 H       1  ZINC000288921983    0.0700
     47 H47       -14.5724   -1.0078   60.2656 H       1  ZINC000288921983    0.1000
     48 H48       -13.6449   -0.4070   58.0780 H       1  ZINC000288921983    0.0700
     49 H49       -14.6915   -1.6232   57.2254 H       1  ZINC000288921983    0.1000
     50 H50       -10.8174    1.9282   56.6083 H       1  ZINC000288921983    0.1800
@<TRIPOS>BOND
     1     1     2    1
     2     1    28    1
     3     1    29    1
     4     1    30    1
     5     2     3    1
     6     2    31    1
     7     2    32    1
     8     3    27   ar
     9     3     4   ar
    10     4     5   ar
    11     5     6   ar
    12     5    33    1
    13     6     7    1
    14     6    26   ar
    15     7     8   am
    16     7    34    1
    17     8     9    2
    18     8    10   am
    19    10    15    1
    20    10    11    1
    21    11    12    1
    22    11    35    1
    23    11    36    1
    24    12    13    1
    25    12    37    1
    26    12    38    1
    27    13    14    1
    28    13    39    1
    29    13    40    1
    30    14    15    1
    31    14    41    1
    32    14    42    1
    33    15    16    1
    34    15    17    1
    35    17    25    1
    36    17    18    2
    37    18    19    1
    38    19    20    2
    39    20    21    1
    40    20    25    1
    41    21    24    1
    42    21    22    1
    43    21    43    1
    44    22    23    1
    45    22    44    1
    46    22    45    1
    47    23    24    1
    48    23    46    1
    49    23    47    1
    50    24    48    1
    51    24    49    1
    52    26    27   ar
    53    26    50    1
@<TRIPOS>SUBSTRUCTURE
     1 ZINC000288921983        1 TEMP              0 ****  ****    0 ROOT


##########                                Name:    ZINC000992031068
##########                DOCK_Rotatable_Bonds:                   8
##########                         Heavy_Atoms:                  25
##########                    Molecular_Weight:             342.401
##########                DOCK_Rotatable_Bonds:                   8
##########                       Formal_Charge:           0.0199999
##########                     HBond_Acceptors:                   8
##########                        HBond_Donors:                   2
##########                         Heavy_Atoms:                  25
##########                          Grid_Score:          -27.228579
##########                     Grid_vdw_energy:          -26.227589
##########                      Grid_es_energy:           -1.000990
##########           Internal_energy_repulsive:            6.381299

@<TRIPOS>MOLECULE
ZINC000992031068
 47 49 1 0 0
SMALL
USER_CHARGES


@<TRIPOS>ATOM
      1 C1         -7.6128    1.7574   51.7489 C.3     1  ZINC000992031068   -0.1100
      2 C2         -6.5104    2.2727   52.6378 C.ar    1  ZINC000992031068    0.1800
      3 C3         -6.6735    2.3002   54.0155 C.ar    1  ZINC000992031068   -0.1700
      4 C4         -5.6236    2.7860   54.7957 C.ar    1  ZINC000992031068    0.1300
      5 C5         -5.7434    2.8376   56.2744 C.2     1  ZINC000992031068    0.5700
      6 O6         -5.0567    2.1116   56.9651 O.2     1  ZINC000992031068   -0.5200
      7 N7         -6.6139    3.6898   56.8508 N.am    1  ZINC000992031068   -0.7100
      8 C8         -6.7309    3.7420   58.3101 C.3     1  ZINC000992031068    0.1300
      9 C9         -8.2094    3.7397   58.7038 C.3     1  ZINC000992031068   -0.1200
     10 C10        -8.9651    2.4786   58.2525 C.3     1  ZINC000992031068   -0.1400
     11 C11        -9.6864    2.5207   59.6100 C.3     1  ZINC000992031068    0.1200
     12 N12        -9.8735    1.2003   60.2163 N.am    1  ZINC000992031068   -0.7200
     13 C13       -10.8101    0.3619   59.7299 C.2     1  ZINC000992031068    0.5200
     14 O14       -11.4969    0.7001   58.7894 O.2     1  ZINC000992031068   -0.5200
     15 C15       -11.0036   -0.9957   60.3548 C.3     1  ZINC000992031068   -0.0800
     16 C16       -10.7262   -2.0647   59.3295 C.2     1  ZINC000992031068    0.1000
     17 C17       -11.6530   -2.7501   58.6208 C.2     1  ZINC000992031068   -0.2500
     18 C18       -10.9791   -3.6446   57.7827 C.2     1  ZINC000992031068    0.0500
     19 N19        -9.6939   -3.5012   57.9812 N.2     1  ZINC000992031068   -0.2900
     20 N20        -9.5087   -2.5058   58.9494 N.pl3   1  ZINC000992031068   -0.3700
     21 C21        -8.2214   -2.0337   59.4648 C.3     1  ZINC000992031068    0.1000
     22 C22        -8.4614    3.2781   60.1488 C.3     1  ZINC000992031068   -0.1400
     23 N23        -4.5128    3.2018   54.1921 N.ar    1  ZINC000992031068   -0.5000
     24 C24        -4.4025    3.1573   52.8817 C.ar    1  ZINC000992031068    0.3000
     25 N25        -5.3735    2.6995   52.1154 N.ar    1  ZINC000992031068   -0.5100
     26 H26        -7.4906    0.6840   51.6037 H       1  ZINC000992031068    0.0900
     27 H27        -8.5779    1.9532   52.2162 H       1  ZINC000992031068    0.0900
     28 H28        -7.5672    2.2621   50.7838 H       1  ZINC000992031068    0.0900
     29 H29        -7.5893    1.9548   54.4721 H       1  ZINC000992031068    0.1600
     30 H30        -7.1631    4.2688   56.2993 H       1  ZINC000992031068    0.4100
     31 H31        -6.2376    2.8729   58.7455 H       1  ZINC000992031068    0.0700
     32 H32        -6.2577    4.6516   58.6803 H       1  ZINC000992031068    0.0800
     33 H33        -8.7170    4.6696   58.4476 H       1  ZINC000992031068    0.1000
     34 H34        -9.6254    2.6464   57.4017 H       1  ZINC000992031068    0.0800
     35 H35        -8.3231    1.6068   58.1260 H       1  ZINC000992031068    0.0900
     36 H36       -10.5999    3.1154   59.6007 H       1  ZINC000992031068    0.1200
     37 H37        -9.3233    0.9293   60.9678 H       1  ZINC000992031068    0.4000
     38 H38       -10.3178   -1.1106   61.1941 H       1  ZINC000992031068    0.1200
     39 H39       -12.0302   -1.0896   60.7090 H       1  ZINC000992031068    0.1100
     40 H40       -12.7239   -2.6284   58.6903 H       1  ZINC000992031068    0.1500
     41 H41       -11.4402   -4.3347   57.0917 H       1  ZINC000992031068    0.1800
     42 H42        -7.8672   -1.2040   58.8530 H       1  ZINC000992031068    0.0800
     43 H43        -8.3431   -1.6992   60.4951 H       1  ZINC000992031068    0.0800
     44 H44        -7.4959   -2.8465   59.4300 H       1  ZINC000992031068    0.0900
     45 H45        -7.6818    2.6248   60.5408 H       1  ZINC000992031068    0.0900
     46 H46        -8.7152    4.0912   60.8289 H       1  ZINC000992031068    0.0800
     47 H47        -3.4888    3.5018   52.4205 H       1  ZINC000992031068    0.2100
@<TRIPOS>BOND
     1     1     2    1
     2     1    26    1
     3     1    27    1
     4     1    28    1
     5     2    25   ar
     6     2     3   ar
     7     3     4   ar
     8     3    29    1
     9     4     5    1
    10     4    23   ar
    11     5     6    2
    12     5     7   am
    13     7     8    1
    14     7    30    1
    15     8     9    1
    16     8    31    1
    17     8    32    1
    18     9    22    1
    19     9    10    1
    20     9    33    1
    21    10    11    1
    22    10    34    1
    23    10    35    1
    24    11    12    1
    25    11    22    1
    26    11    36    1
    27    12    13   am
    28    12    37    1
    29    13    14    2
    30    13    15    1
    31    15    16    1
    32    15    38    1
    33    15    39    1
    34    16    20    1
    35    16    17    2
    36    17    18    1
    37    17    40    1
    38    18    19    2
    39    18    41    1
    40    19    20    1
    41    20    21    1
    42    21    42    1
    43    21    43    1
    44    21    44    1
    45    22    45    1
    46    22    46    1
    47    23    24   ar
    48    24    25   ar
    49    24    47    1
@<TRIPOS>SUBSTRUCTURE
     1 ZINC000992031068        1 TEMP              0 ****  ****    0 ROOT


##########                                Name:    ZINC001045463759
##########                DOCK_Rotatable_Bonds:                   6
##########                         Heavy_Atoms:                  24
##########                    Molecular_Weight:             336.385
##########                DOCK_Rotatable_Bonds:                   6
##########                       Formal_Charge:          1.3411e-07
##########                     HBond_Acceptors:                   7
##########                        HBond_Donors:                   2
##########                         Heavy_Atoms:                  24
##########                          Grid_Score:          -27.192545
##########                     Grid_vdw_energy:          -26.988308
##########                      Grid_es_energy:           -0.204237
##########           Internal_energy_repulsive:            8.514851

@<TRIPOS>MOLECULE
ZINC001045463759
 46 49 1 0 0
SMALL
USER_CHARGES


@<TRIPOS>ATOM
      1 O1        -11.4489   -2.8674   60.4645 O.2     1  ZINC001045463759   -0.5100
      2 C2        -12.3193   -2.0982   60.1154 C.2     1  ZINC001045463759    0.5400
      3 N3        -12.0285   -0.7975   59.9151 N.am    1  ZINC001045463759   -0.7200
      4 C4        -10.6625   -0.3115   60.1250 C.3     1  ZINC001045463759    0.1400
      5 H5        -10.0994   -1.0472   60.6992 H       1  ZINC001045463759    0.1000
      6 C6        -10.7041    1.0113   60.8925 C.3     1  ZINC001045463759   -0.1300
      7 C7         -9.2775    1.5189   61.1118 C.3     1  ZINC001045463759   -0.1200
      8 C8         -8.5997    1.7362   59.7574 C.3     1  ZINC001045463759   -0.1200
      9 C9         -8.5581    0.4133   58.9898 C.3     1  ZINC001045463759   -0.1300
     10 C10        -9.9847   -0.0943   58.7707 C.3     1  ZINC001045463759    0.1500
     11 H11       -10.5479    0.6415   58.1965 H       1  ZINC001045463759    0.0900
     12 N12        -9.9449   -1.3609   58.0356 N.pl3   1  ZINC001045463759   -0.7100
     13 C13        -9.8179   -1.3575   56.6561 C.ar    1  ZINC001045463759    0.4400
     14 C14       -10.0256   -2.5268   55.9218 C.ar    1  ZINC001045463759   -0.3000
     15 C15        -9.8870   -2.4719   54.5488 C.ar    1  ZINC001045463759    0.1800
     16 N16        -9.5640   -1.3205   53.9769 N.ar    1  ZINC001045463759   -0.5600
     17 C17        -9.3746   -0.2339   54.6981 C.ar    1  ZINC001045463759    0.4000
     18 C18        -9.0086    1.0522   54.0029 C.3     1  ZINC001045463759   -0.1100
     19 C19        -7.6773    1.7049   54.3800 C.3     1  ZINC001045463759   -0.1500
     20 C20        -7.8342    1.0161   53.0229 C.3     1  ZINC001045463759   -0.1500
     21 N21        -9.5015   -0.2393   56.0094 N.ar    1  ZINC001045463759   -0.5700
     22 C22       -13.7245   -2.5981   59.8995 C.3     1  ZINC001045463759   -0.2000
     23 H23       -14.2155   -3.0147   60.7790 H       1  ZINC001045463759    0.1500
     24 C24       -14.5966   -1.8425   58.8949 C.3     1  ZINC001045463759   -0.1500
     25 C25       -14.0496   -3.2284   58.5438 C.3     1  ZINC001045463759    0.2300
     26 F26       -13.0198   -3.2962   57.5993 F       1  ZINC001045463759   -0.1400
     27 F27       -14.9547   -4.2950   58.5276 F       1  ZINC001045463759   -0.1500
     28 H28       -12.7237   -0.1831   59.6321 H       1  ZINC001045463759    0.4000
     29 H29       -11.2672    1.7470   60.3184 H       1  ZINC001045463759    0.0700
     30 H30       -11.1869    0.8565   61.8575 H       1  ZINC001045463759    0.0800
     31 H31        -9.3070    2.4613   61.6587 H       1  ZINC001045463759    0.0700
     32 H32        -8.7143    0.7832   61.6860 H       1  ZINC001045463759    0.0700
     33 H33        -9.1629    2.4718   59.1833 H       1  ZINC001045463759    0.0700
     34 H34        -7.5834    2.0977   59.9136 H       1  ZINC001045463759    0.0700
     35 H35        -8.0753    0.5681   58.0249 H       1  ZINC001045463759    0.0700
     36 H36        -7.9950   -0.3224   59.5640 H       1  ZINC001045463759    0.0700
     37 H37       -10.0075   -2.2019   58.5149 H       1  ZINC001045463759    0.4100
     38 H38       -10.2876   -3.4511   56.4152 H       1  ZINC001045463759    0.1400
     39 H39       -10.0396   -3.3565   53.9482 H       1  ZINC001045463759    0.1700
     40 H40        -9.8431    1.7115   53.7643 H       1  ZINC001045463759    0.1300
     41 H41        -7.6357    2.7941   54.3897 H       1  ZINC001045463759    0.1000
     42 H42        -7.0661    1.2042   55.1310 H       1  ZINC001045463759    0.1100
     43 H43        -7.3263    0.0622   52.8810 H       1  ZINC001045463759    0.1000
     44 H44        -7.8958    1.6520   52.1398 H       1  ZINC001045463759    0.1000
     45 H45       -15.6615   -1.7623   59.1132 H       1  ZINC001045463759    0.1400
     46 H46       -14.1540   -0.9838   58.3900 H       1  ZINC001045463759    0.1300
@<TRIPOS>BOND
     1     1     2    2
     2     2     3   am
     3     2    22    1
     4     3     4    1
     5     3    28    1
     6     4     5    1
     7     4    10    1
     8     4     6    1
     9     6     7    1
    10     6    29    1
    11     6    30    1
    12     7     8    1
    13     7    31    1
    14     7    32    1
    15     8     9    1
    16     8    33    1
    17     8    34    1
    18     9    10    1
    19     9    35    1
    20     9    36    1
    21    10    11    1
    22    10    12    1
    23    12    13    1
    24    12    37    1
    25    13    21   ar
    26    13    14   ar
    27    14    15   ar
    28    14    38    1
    29    15    16   ar
    30    15    39    1
    31    16    17   ar
    32    17    18    1
    33    17    21   ar
    34    18    20    1
    35    18    19    1
    36    18    40    1
    37    19    20    1
    38    19    41    1
    39    19    42    1
    40    20    43    1
    41    20    44    1
    42    22    23    1
    43    22    25    1
    44    22    24    1
    45    24    25    1
    46    24    45    1
    47    24    46    1
    48    25    26    1
    49    25    27    1
@<TRIPOS>SUBSTRUCTURE
     1 ZINC001045463759        1 TEMP              0 ****  ****    0 ROOT


##########                                Name:    ZINC000673213454
##########                DOCK_Rotatable_Bonds:                   7
##########                         Heavy_Atoms:                  26
##########                    Molecular_Weight:             360.453
##########                DOCK_Rotatable_Bonds:                   7
##########                       Formal_Charge:          -0.0100001
##########                     HBond_Acceptors:                   6
##########                        HBond_Donors:                   1
##########                         Heavy_Atoms:                  26
##########                          Grid_Score:          -27.190445
##########                     Grid_vdw_energy:          -26.649233
##########                      Grid_es_energy:           -0.541213
##########           Internal_energy_repulsive:           22.794737

@<TRIPOS>MOLECULE
ZINC000673213454
 54 56 1 0 0
SMALL
USER_CHARGES


@<TRIPOS>ATOM
      1 C1        -10.0012   -3.3318   57.8771 C.3     1  ZINC000673213454   -0.1700
      2 C2        -10.6670   -2.1953   57.0986 C.3     1  ZINC000673213454    0.1400
      3 H3        -10.6564   -1.2872   57.7013 H       1  ZINC000673213454    0.0900
      4 C4        -12.1132   -2.5767   56.7763 C.3     1  ZINC000673213454   -0.1200
      5 C5        -12.8788   -2.8198   58.0784 C.3     1  ZINC000673213454   -0.1300
      6 H6        -12.4444   -3.6568   58.6248 H       1  ZINC000673213454    0.0800
      7 C7        -14.3762   -3.0823   57.7857 C.3     1  ZINC000673213454   -0.1500
      8 C8        -15.0725   -2.2967   58.9259 C.3     1  ZINC000673213454    0.0500
      9 O9        -14.2481   -1.1211   59.0773 O.3     1  ZINC000673213454   -0.3800
     10 C10       -12.8784   -1.5486   58.9497 C.3     1  ZINC000673213454    0.0500
     11 N11        -9.9338   -1.9626   55.8518 N.am    1  ZINC000673213454   -0.6900
     12 C12       -10.0871   -0.8003   55.1868 C.2     1  ZINC000673213454    0.5100
     13 O13       -10.8312    0.0540   55.6217 O.2     1  ZINC000673213454   -0.5100
     14 C14        -9.3406   -0.5635   53.9140 C.2     1  ZINC000673213454    0.5000
     15 O15        -9.7488   -1.0374   52.8740 O.2     1  ZINC000673213454   -0.5200
     16 N16        -8.2142    0.1764   53.9210 N.am    1  ZINC000673213454   -0.5800
     17 C17        -7.4991    0.3927   52.6491 C.3     1  ZINC000673213454    0.1100
     18 C18        -7.0106    1.8439   52.5313 C.3     1  ZINC000673213454   -0.1700
     19 C19        -8.0732    2.7824   53.0665 C.3     1  ZINC000673213454    0.0800
     20 O20        -7.8300    3.0076   54.4489 O.3     1  ZINC000673213454   -0.3800
     21 C21        -8.3601    2.1390   55.3813 C.3     1  ZINC000673213454    0.1500
     22 H22        -9.4418    2.0881   55.2566 H       1  ZINC000673213454    0.0600
     23 C23        -8.0370    2.6324   56.7681 C.ar    1  ZINC000673213454   -0.0800
     24 C24        -8.6884    2.0947   57.8623 C.ar    1  ZINC000673213454   -0.0900
     25 C25        -8.3919    2.5473   59.1344 C.ar    1  ZINC000673213454   -0.1300
     26 C26        -7.4438    3.5374   59.3122 C.ar    1  ZINC000673213454   -0.1200
     27 C27        -6.7917    4.0744   58.2181 C.ar    1  ZINC000673213454   -0.1300
     28 C28        -7.0851    3.6188   56.9463 C.ar    1  ZINC000673213454   -0.0900
     29 C29        -7.7537    0.7351   55.1787 C.3     1  ZINC000673213454    0.0700
     30 H30       -10.0117   -4.2400   57.2745 H       1  ZINC000673213454    0.0600
     31 H31        -8.9709   -3.0601   58.1068 H       1  ZINC000673213454    0.0600
     32 H32       -10.5467   -3.5051   58.8048 H       1  ZINC000673213454    0.0700
     33 H33       -12.5874   -1.7670   56.2217 H       1  ZINC000673213454    0.0800
     34 H34       -12.1238   -3.4849   56.1736 H       1  ZINC000673213454    0.0900
     35 H35       -14.6575   -2.6843   56.8107 H       1  ZINC000673213454    0.0800
     36 H36       -14.6044   -4.1462   57.8505 H       1  ZINC000673213454    0.0800
     37 H37       -16.0866   -2.0198   58.6375 H       1  ZINC000673213454    0.0900
     38 H38       -15.0802   -2.8813   59.8458 H       1  ZINC000673213454    0.0600
     39 H39       -12.4661   -1.7705   59.9339 H       1  ZINC000673213454    0.0600
     40 H40       -12.2901   -0.7686   58.4665 H       1  ZINC000673213454    0.0900
     41 H41        -9.3382   -2.6449   55.5048 H       1  ZINC000673213454    0.4100
     42 H42        -6.6417   -0.2786   52.6020 H       1  ZINC000673213454    0.0800
     43 H43        -8.1707    0.1726   51.8192 H       1  ZINC000673213454    0.0900
     44 H44        -6.0941    1.9663   53.1085 H       1  ZINC000673213454    0.0800
     45 H45        -6.8142    2.0770   51.4849 H       1  ZINC000673213454    0.0900
     46 H46        -8.0289    3.7294   52.5286 H       1  ZINC000673213454    0.1000
     47 H47        -9.0574    2.3319   52.9374 H       1  ZINC000673213454    0.0500
     48 H48        -9.4292    1.3212   57.7234 H       1  ZINC000673213454    0.1300
     49 H49        -8.9015    2.1277   59.9892 H       1  ZINC000673213454    0.1200
     50 H50        -7.2127    3.8915   60.3060 H       1  ZINC000673213454    0.1200
     51 H51        -6.0511    4.8482   58.3569 H       1  ZINC000673213454    0.1200
     52 H52        -6.5755    4.0384   56.0915 H       1  ZINC000673213454    0.1300
     53 H53        -8.0625    0.0847   55.9971 H       1  ZINC000673213454    0.1200
     54 H54        -6.6663    0.8081   55.1636 H       1  ZINC000673213454    0.0800
@<TRIPOS>BOND
     1     1     2    1
     2     1    30    1
     3     1    31    1
     4     1    32    1
     5     2     3    1
     6     2     4    1
     7     2    11    1
     8     4     5    1
     9     4    33    1
    10     4    34    1
    11     5     6    1
    12     5    10    1
    13     5     7    1
    14     7     8    1
    15     7    35    1
    16     7    36    1
    17     8     9    1
    18     8    37    1
    19     8    38    1
    20     9    10    1
    21    10    39    1
    22    10    40    1
    23    11    12   am
    24    11    41    1
    25    12    13    2
    26    12    14    1
    27    14    15    2
    28    14    16   am
    29    16    29    1
    30    16    17    1
    31    17    18    1
    32    17    42    1
    33    17    43    1
    34    18    19    1
    35    18    44    1
    36    18    45    1
    37    19    20    1
    38    19    46    1
    39    19    47    1
    40    20    21    1
    41    21    22    1
    42    21    23    1
    43    21    29    1
    44    23    28   ar
    45    23    24   ar
    46    24    25   ar
    47    24    48    1
    48    25    26   ar
    49    25    49    1
    50    26    27   ar
    51    26    50    1
    52    27    28   ar
    53    27    51    1
    54    28    52    1
    55    29    53    1
    56    29    54    1
@<TRIPOS>SUBSTRUCTURE
     1 ZINC000673213454        1 TEMP              0 ****  ****    0 ROOT


##########                                Name:    ZINC000866034032
##########                DOCK_Rotatable_Bonds:                   4
##########                         Heavy_Atoms:                  23
##########                    Molecular_Weight:             383.242
##########                DOCK_Rotatable_Bonds:                   4
##########                       Formal_Charge:           0.0199999
##########                     HBond_Acceptors:                   6
##########                        HBond_Donors:                   1
##########                         Heavy_Atoms:                  23
##########                          Grid_Score:          -27.165430
##########                     Grid_vdw_energy:          -25.974302
##########                      Grid_es_energy:           -1.191127
##########           Internal_energy_repulsive:           15.256454

@<TRIPOS>MOLECULE
ZINC000866034032
 42 44 1 0 0
SMALL
USER_CHARGES


@<TRIPOS>ATOM
      1 C1         -7.7079    2.1760   55.2233 C.3     1  ZINC000866034032   -0.1300
      2 C2         -8.5324    2.0806   56.5086 C.3     1  ZINC000866034032   -0.0800
      3 C3         -9.9895    1.6918   56.2505 C.3     1  ZINC000866034032   -0.1300
      4 C4         -7.8587    1.2464   57.6091 C.3     1  ZINC000866034032    0.1400
      5 H5         -7.1464    0.5153   57.2267 H       1  ZINC000866034032    0.1100
      6 N6         -8.8047    0.6695   58.5675 N.am    1  ZINC000866034032   -0.7000
      7 C7         -8.5188   -0.4981   59.1770 C.2     1  ZINC000866034032    0.5100
      8 O8         -7.4790   -1.0719   58.9309 O.2     1  ZINC000866034032   -0.5300
      9 C9         -9.4910   -1.0907   60.1642 C.3     1  ZINC000866034032   -0.1100
     10 C10       -10.5151   -1.9152   59.4275 C.ar    1  ZINC000866034032   -0.0500
     11 C11       -10.1737   -2.5464   58.2462 C.ar    1  ZINC000866034032   -0.0500
     12 C12       -11.1129   -3.3025   57.5699 C.ar    1  ZINC000866034032   -0.0900
     13 C13       -12.3940   -3.4277   58.0757 C.ar    1  ZINC000866034032   -0.0500
     14 Br14      -13.6789   -4.4622   57.1514 Br      1  ZINC000866034032    0.0200
     15 C15       -12.7350   -2.7960   59.2584 C.ar    1  ZINC000866034032   -0.0200
     16 N16       -14.1057   -2.9299   59.8004 N.pl3   1  ZINC000866034032    0.0200
     17 O17       -14.4058   -2.3738   60.8417 O.2     1  ZINC000866034032   -0.1600
     18 O18       -14.9336   -3.5963   59.2053 O.2     1  ZINC000866034032   -0.1300
     19 C19       -11.7941   -2.0446   59.9365 C.ar    1  ZINC000866034032   -0.0300
     20 C20        -7.2004    2.5460   58.1004 C.3     1  ZINC000866034032   -0.1500
     21 H21        -6.1991    2.7540   57.7236 H       1  ZINC000866034032    0.1200
     22 C22        -7.4002    2.7851   59.6137 C.3     1  ZINC000866034032   -0.1400
     23 C23        -8.6728    3.6565   59.6932 C.3     1  ZINC000866034032    0.0500
     24 O24        -9.3920    3.3713   58.4739 O.3     1  ZINC000866034032   -0.3600
     25 C25        -8.3767    3.3001   57.4290 C.3     1  ZINC000866034032    0.0600
     26 H26        -8.1440    4.2509   56.9497 H       1  ZINC000866034032    0.1000
     27 H27        -6.7295    2.5998   55.4498 H       1  ZINC000866034032    0.0600
     28 H28        -7.5829    1.1807   54.7970 H       1  ZINC000866034032    0.0700
     29 H29        -8.2239    2.8157   54.5073 H       1  ZINC000866034032    0.0700
     30 H30       -10.0356    0.6543   55.9196 H       1  ZINC000866034032    0.0600
     31 H31       -10.5642    1.8058   57.1697 H       1  ZINC000866034032    0.0600
     32 H32       -10.4068    2.3383   55.4785 H       1  ZINC000866034032    0.0600
     33 H33        -9.6369    1.1278   58.7635 H       1  ZINC000866034032    0.4100
     34 H34        -8.9525   -1.7249   60.8685 H       1  ZINC000866034032    0.1100
     35 H35        -9.9920   -0.2890   60.7068 H       1  ZINC000866034032    0.1200
     36 H36        -9.1733   -2.4486   57.8512 H       1  ZINC000866034032    0.1500
     37 H37       -10.8464   -3.7951   56.6465 H       1  ZINC000866034032    0.1600
     38 H38       -12.0601   -1.5519   60.8600 H       1  ZINC000866034032    0.1600
     39 H39        -7.5524    1.8388   60.1328 H       1  ZINC000866034032    0.0800
     40 H40        -6.5460    3.3178   60.0319 H       1  ZINC000866034032    0.0800
     41 H41        -9.2707    3.3769   60.5606 H       1  ZINC000866034032    0.0900
     42 H42        -8.4073    4.7127   59.7388 H       1  ZINC000866034032    0.0600
@<TRIPOS>BOND
     1     1     2    1
     2     1    27    1
     3     1    28    1
     4     1    29    1
     5     2    25    1
     6     2     3    1
     7     2     4    1
     8     3    30    1
     9     3    31    1
    10     3    32    1
    11     4     5    1
    12     4     6    1
    13     4    20    1
    14     6     7   am
    15     6    33    1
    16     7     8    2
    17     7     9    1
    18     9    10    1
    19     9    34    1
    20     9    35    1
    21    10    19   ar
    22    10    11   ar
    23    11    12   ar
    24    11    36    1
    25    12    13   ar
    26    12    37    1
    27    13    14    1
    28    13    15   ar
    29    15    16    1
    30    15    19   ar
    31    16    17    2
    32    16    18    2
    33    19    38    1
    34    20    21    1
    35    20    25    1
    36    20    22    1
    37    22    23    1
    38    22    39    1
    39    22    40    1
    40    23    24    1
    41    23    41    1
    42    23    42    1
    43    24    25    1
    44    25    26    1
@<TRIPOS>SUBSTRUCTURE
     1 ZINC000866034032        1 TEMP              0 ****  ****    0 ROOT


##########                                Name:    ZINC000942890482
##########                DOCK_Rotatable_Bonds:                   8
##########                         Heavy_Atoms:                  25
##########                    Molecular_Weight:             346.445
##########                DOCK_Rotatable_Bonds:                   8
##########                       Formal_Charge:          -0.0100004
##########                     HBond_Acceptors:                   5
##########                        HBond_Donors:                   0
##########                         Heavy_Atoms:                  25
##########                          Grid_Score:          -27.136845
##########                     Grid_vdw_energy:          -25.731321
##########                      Grid_es_energy:           -1.405524
##########           Internal_energy_repulsive:           29.614147

@<TRIPOS>MOLECULE
ZINC000942890482
 52 54 1 0 0
SMALL
USER_CHARGES


@<TRIPOS>ATOM
      1 C1         -8.0725   -0.5727   59.5030 C.3     1  ZINC000942890482   -0.1700
      2 C2         -8.8261    0.7321   59.7689 C.3     1  ZINC000942890482    0.1000
      3 N3        -10.1257    0.4306   60.3743 N.am    1  ZINC000942890482   -0.6000
      4 C4        -11.1659    0.0744   59.5947 C.2     1  ZINC000942890482    0.5700
      5 O5        -12.2443   -0.1757   60.0972 O.2     1  ZINC000942890482   -0.5100
      6 C6        -10.9956   -0.0120   58.1300 C.ar    1  ZINC000942890482   -0.1400
      7 C7        -10.6488   -1.2269   57.5354 C.ar    1  ZINC000942890482   -0.0600
      8 C8        -10.4917   -1.3021   56.1678 C.ar    1  ZINC000942890482   -0.1600
      9 C9        -10.6771   -0.1743   55.3832 C.ar    1  ZINC000942890482    0.1300
     10 F10       -10.5217   -0.2534   54.0435 F       1  ZINC000942890482   -0.1300
     11 C11       -11.0219    1.0346   55.9685 C.ar    1  ZINC000942890482   -0.1600
     12 C12       -11.1863    1.1199   57.3342 C.ar    1  ZINC000942890482   -0.0100
     13 C13       -11.5611    2.4343   57.9689 C.3     1  ZINC000942890482   -0.1200
     14 C14       -10.2946    0.5164   61.8270 C.3     1  ZINC000942890482    0.1400
     15 H15       -11.2333    0.0570   62.1368 H       1  ZINC000942890482    0.1100
     16 C16       -10.2094    1.9881   62.3109 C.3     1  ZINC000942890482   -0.1500
     17 C17        -9.7240    1.8449   63.7689 C.3     1  ZINC000942890482    0.1100
     18 N18        -9.0627    0.5367   63.8823 N.am    1  ZINC000942890482   -0.6200
     19 C19        -8.5202    0.0255   65.0052 C.2     1  ZINC000942890482    0.5300
     20 O20        -7.9972   -1.0685   64.9823 O.2     1  ZINC000942890482   -0.5400
     21 C21        -8.5637    0.8133   66.2892 C.3     1  ZINC000942890482   -0.1300
     22 C22        -7.4840    0.2958   67.2418 C.3     1  ZINC000942890482   -0.0700
     23 C23        -6.1169    0.3869   66.5608 C.3     1  ZINC000942890482   -0.1600
     24 C24        -5.1201    1.4087   67.1115 C.3     1  ZINC000942890482   -0.1800
     25 C25        -4.8984   -0.0853   67.3566 C.3     1  ZINC000942890482   -0.1800
     26 C26        -9.0927   -0.1248   62.5646 C.3     1  ZINC000942890482    0.0900
     27 H27        -7.9212   -1.1030   60.4432 H       1  ZINC000942890482    0.0600
     28 H28        -8.6539   -1.1962   58.8238 H       1  ZINC000942890482    0.0600
     29 H29        -7.1056   -0.3484   59.0526 H       1  ZINC000942890482    0.0700
     30 H30        -8.2447    1.3554   60.4482 H       1  ZINC000942890482    0.0900
     31 H31        -8.9775    1.2624   58.8288 H       1  ZINC000942890482    0.0900
     32 H32       -10.5038   -2.1060   58.1458 H       1  ZINC000942890482    0.1400
     33 H33       -10.2231   -2.2412   55.7069 H       1  ZINC000942890482    0.1400
     34 H34       -11.1652    1.9102   55.3526 H       1  ZINC000942890482    0.1400
     35 H35       -12.6448    2.5502   57.9515 H       1  ZINC000942890482    0.0900
     36 H36       -11.2102    2.4528   59.0007 H       1  ZINC000942890482    0.0700
     37 H37       -11.0994    3.2507   57.4134 H       1  ZINC000942890482    0.0700
     38 H38        -9.4869    2.5480   61.7171 H       1  ZINC000942890482    0.1000
     39 H39       -11.1898    2.4630   62.2758 H       1  ZINC000942890482    0.0900
     40 H40        -9.0160    2.6397   64.0036 H       1  ZINC000942890482    0.0700
     41 H41       -10.5746    1.8905   64.4489 H       1  ZINC000942890482    0.0700
     42 H42        -8.3848    1.8669   66.0752 H       1  ZINC000942890482    0.0900
     43 H43        -9.5432    0.6979   66.7532 H       1  ZINC000942890482    0.0900
     44 H44        -7.4793    0.9006   68.1486 H       1  ZINC000942890482    0.0700
     45 H45        -7.6934   -0.7426   67.4987 H       1  ZINC000942890482    0.0700
     46 H46        -6.1149    0.2105   65.4851 H       1  ZINC000942890482    0.1000
     47 H47        -4.4620    1.9047   66.3982 H       1  ZINC000942890482    0.0900
     48 H48        -5.4382    2.0159   67.9590 H       1  ZINC000942890482    0.0900
     49 H49        -5.0707   -0.4608   68.3652 H       1  ZINC000942890482    0.0900
     50 H50        -4.0945   -0.5720   66.8044 H       1  ZINC000942890482    0.0900
     51 H51        -9.2465   -1.1974   62.6820 H       1  ZINC000942890482    0.0800
     52 H52        -8.1679    0.0696   62.0215 H       1  ZINC000942890482    0.0900
@<TRIPOS>BOND
     1     1     2    1
     2     1    27    1
     3     1    28    1
     4     1    29    1
     5     2     3    1
     6     2    30    1
     7     2    31    1
     8     3     4   am
     9     3    14    1
    10     4     5    2
    11     4     6    1
    12     6    12   ar
    13     6     7   ar
    14     7     8   ar
    15     7    32    1
    16     8     9   ar
    17     8    33    1
    18     9    10    1
    19     9    11   ar
    20    11    12   ar
    21    11    34    1
    22    12    13    1
    23    13    35    1
    24    13    36    1
    25    13    37    1
    26    14    15    1
    27    14    26    1
    28    14    16    1
    29    16    17    1
    30    16    38    1
    31    16    39    1
    32    17    18    1
    33    17    40    1
    34    17    41    1
    35    18    19   am
    36    18    26    1
    37    19    20    2
    38    19    21    1
    39    21    22    1
    40    21    42    1
    41    21    43    1
    42    22    23    1
    43    22    44    1
    44    22    45    1
    45    23    25    1
    46    23    24    1
    47    23    46    1
    48    24    25    1
    49    24    47    1
    50    24    48    1
    51    25    49    1
    52    25    50    1
    53    26    51    1
    54    26    52    1
@<TRIPOS>SUBSTRUCTURE
     1 ZINC000942890482        1 TEMP              0 ****  ****    0 ROOT


##########                                Name:    ZINC001023148918
##########                DOCK_Rotatable_Bonds:                   6
##########                         Heavy_Atoms:                  25
##########                    Molecular_Weight:             348.402
##########                DOCK_Rotatable_Bonds:                   6
##########                       Formal_Charge:           0.0199999
##########                     HBond_Acceptors:                   8
##########                        HBond_Donors:                   2
##########                         Heavy_Atoms:                  25
##########                          Grid_Score:          -27.126778
##########                     Grid_vdw_energy:          -26.500145
##########                      Grid_es_energy:           -0.626632
##########           Internal_energy_repulsive:           11.692674

@<TRIPOS>MOLECULE
ZINC001023148918
 49 52 1 0 0
SMALL
USER_CHARGES


@<TRIPOS>ATOM
      1 C1         -9.4005    1.4318   64.3208 C.3     1  ZINC001023148918   -0.0700
      2 C2         -9.8114    1.1167   62.9054 C.2     1  ZINC001023148918    0.0200
      3 N3        -10.9134    1.5077   62.3180 N.2     1  ZINC001023148918   -0.2700
      4 N4        -10.9687    1.0735   61.1105 N.pl3   1  ZINC001023148918   -0.2500
      5 C5        -12.0647    1.3258   60.1718 C.3     1  ZINC001023148918    0.0800
      6 C6         -9.8493    0.3406   60.8350 C.2     1  ZINC001023148918   -0.0400
      7 C7         -9.5226   -0.3301   59.5666 C.2     1  ZINC001023148918    0.6000
      8 O8         -8.9448   -1.4004   59.5757 O.2     1  ZINC001023148918   -0.5300
      9 N9         -9.8639    0.2415   58.3946 N.am    1  ZINC001023148918   -0.7000
     10 C10        -9.5386   -0.4262   57.1319 C.3     1  ZINC001023148918    0.1500
     11 H11        -8.7153   -1.1280   57.2642 H       1  ZINC001023148918    0.1200
     12 C12        -9.2147    0.6075   56.0244 C.3     1  ZINC001023148918    0.1000
     13 N13        -9.5117   -0.0890   54.7595 N.am    1  ZINC001023148918   -0.6200
     14 C14        -8.9783    0.2047   53.5571 C.2     1  ZINC001023148918    0.5400
     15 O15        -9.2957   -0.4388   52.5793 O.2     1  ZINC001023148918   -0.5200
     16 C16        -7.9875    1.3327   53.4278 C.3     1  ZINC001023148918   -0.1400
     17 H17        -7.6711    1.6816   54.4108 H       1  ZINC001023148918    0.1100
     18 C18        -8.5863    2.4972   52.5985 C.3     1  ZINC001023148918   -0.1400
     19 C19        -7.6264    2.5777   51.3736 C.3     1  ZINC001023148918    0.0600
     20 H20        -8.0403    3.0566   50.4862 H       1  ZINC001023148918    0.1300
     21 C21        -6.3113    3.2087   51.9216 C.3     1  ZINC001023148918   -0.1500
     22 C22        -5.7015    2.0567   52.7603 C.3     1  ZINC001023148918   -0.1500
     23 C23        -6.7588    0.8932   52.5762 C.3     1  ZINC001023148918    0.0900
     24 H24        -6.3820   -0.1135   52.7572 H       1  ZINC001023148918    0.1400
     25 O25        -7.2449    1.1715   51.2168 O.3     1  ZINC001023148918   -0.3600
     26 C26       -10.4855   -1.1575   55.0271 C.3     1  ZINC001023148918    0.0700
     27 C27       -10.7853   -1.1364   56.5412 C.3     1  ZINC001023148918    0.0900
     28 H28       -11.6890   -0.5628   56.7475 H       1  ZINC001023148918    0.0800
     29 O29       -10.9050   -2.4658   57.0515 O.3     1  ZINC001023148918   -0.5500
     30 C30        -9.0808    0.3607   61.9859 C.2     1  ZINC001023148918   -0.1800
     31 H31        -8.8302    2.3605   64.3354 H       1  ZINC001023148918    0.0800
     32 H32       -10.2898    1.5417   64.9413 H       1  ZINC001023148918    0.0700
     33 H33        -8.7843    0.6208   64.7092 H       1  ZINC001023148918    0.0800
     34 H34       -11.8951    2.2739   59.6615 H       1  ZINC001023148918    0.0900
     35 H35       -12.1072    0.5209   59.4381 H       1  ZINC001023148918    0.1100
     36 H36       -13.0073    1.3703   60.7173 H       1  ZINC001023148918    0.0900
     37 H37       -10.3246    1.0950   58.3874 H       1  ZINC001023148918    0.4100
     38 H38        -9.8481    1.4881   56.1305 H       1  ZINC001023148918    0.0800
     39 H39        -8.1624    0.8891   56.0645 H       1  ZINC001023148918    0.0900
     40 H40        -9.6013    2.2616   52.2787 H       1  ZINC001023148918    0.0800
     41 H41        -8.5654    3.4270   53.1671 H       1  ZINC001023148918    0.0900
     42 H42        -5.6458    3.4852   51.1038 H       1  ZINC001023148918    0.0800
     43 H43        -6.5300    4.0711   52.5514 H       1  ZINC001023148918    0.0800
     44 H44        -4.7321    1.7592   52.3606 H       1  ZINC001023148918    0.0800
     45 H45        -5.6164    2.3451   53.8081 H       1  ZINC001023148918    0.0800
     46 H46       -11.4012   -0.9738   54.4649 H       1  ZINC001023148918    0.0800
     47 H47       -10.0634   -2.1225   54.7468 H       1  ZINC001023148918    0.0900
     48 H48       -11.0144   -2.5103   58.0113 H       1  ZINC001023148918    0.3900
     49 H49        -8.1228   -0.1128   62.1420 H       1  ZINC001023148918    0.1600
@<TRIPOS>BOND
     1     1     2    1
     2     1    31    1
     3     1    32    1
     4     1    33    1
     5     2    30    1
     6     2     3    2
     7     3     4    1
     8     4     5    1
     9     4     6    1
    10     5    34    1
    11     5    35    1
    12     5    36    1
    13     6     7    1
    14     6    30    2
    15     7     8    2
    16     7     9   am
    17     9    10    1
    18     9    37    1
    19    10    11    1
    20    10    27    1
    21    10    12    1
    22    12    13    1
    23    12    38    1
    24    12    39    1
    25    13    14   am
    26    13    26    1
    27    14    15    2
    28    14    16    1
    29    16    17    1
    30    16    23    1
    31    16    18    1
    32    18    19    1
    33    18    40    1
    34    18    41    1
    35    19    20    1
    36    19    25    1
    37    19    21    1
    38    21    22    1
    39    21    42    1
    40    21    43    1
    41    22    23    1
    42    22    44    1
    43    22    45    1
    44    23    24    1
    45    23    25    1
    46    26    27    1
    47    26    46    1
    48    26    47    1
    49    27    28    1
    50    27    29    1
    51    29    48    1
    52    30    49    1
@<TRIPOS>SUBSTRUCTURE
     1 ZINC001023148918        1 TEMP              0 ****  ****    0 ROOT


##########                                Name:    ZINC000252489163
##########                DOCK_Rotatable_Bonds:                   6
##########                         Heavy_Atoms:                  25
##########                    Molecular_Weight:             379.403
##########                DOCK_Rotatable_Bonds:                   6
##########                       Formal_Charge:          0.00999963
##########                     HBond_Acceptors:                  10
##########                        HBond_Donors:                   2
##########                         Heavy_Atoms:                  25
##########                          Grid_Score:          -27.103251
##########                     Grid_vdw_energy:          -25.531761
##########                      Grid_es_energy:           -1.571490
##########           Internal_energy_repulsive:           10.965297

@<TRIPOS>MOLECULE
ZINC000252489163
 45 46 1 0 0
SMALL
USER_CHARGES


@<TRIPOS>ATOM
      1 C1         -0.9036    2.1903   58.0569 C.3     1  ZINC000252489163   -0.1100
      2 C2         -2.1592    2.6105   57.3371 C.ar    1  ZINC000252489163   -0.0600
      3 C3         -3.3650    2.6333   58.0097 C.ar    1  ZINC000252489163   -0.1300
      4 C4         -4.5216    3.0211   57.3459 C.ar    1  ZINC000252489163    0.1700
      5 N5         -5.7451    3.0458   58.0248 N.am    1  ZINC000252489163   -0.6800
      6 C6         -6.7541    2.2468   57.6249 C.2     1  ZINC000252489163    0.7100
      7 O7         -6.6013    1.5044   56.6741 O.2     1  ZINC000252489163   -0.5500
      8 N8         -7.9324    2.2706   58.2788 N.am    1  ZINC000252489163   -0.6200
      9 C9         -8.1321    3.1623   59.4294 C.3     1  ZINC000252489163    0.1000
     10 C10        -8.6239    2.3306   60.6181 C.3     1  ZINC000252489163   -0.1400
     11 C11        -9.8724    1.5474   60.2058 C.3     1  ZINC000252489163   -0.1300
     12 C12        -9.5235    0.5939   59.0606 C.3     1  ZINC000252489163    0.1400
     13 H13        -8.7335   -0.0854   59.3809 H       1  ZINC000252489163    0.0900
     14 N14       -10.7114   -0.1784   58.6881 N.am    1  ZINC000252489163   -1.1100
     15 S15       -10.8852   -1.7375   59.2185 S.o2    1  ZINC000252489163    2.6100
     16 C16        -9.4465   -2.6095   58.5400 C.3     1  ZINC000252489163   -0.6700
     17 O17       -10.7875   -1.6395   60.6327 O.2     1  ZINC000252489163   -0.9500
     18 O18       -12.0806   -2.1881   58.5961 O.2     1  ZINC000252489163   -0.9500
     19 C19        -9.0436    1.4101   57.8508 C.3     1  ZINC000252489163    0.1100
     20 C20        -4.4615    3.3845   56.0072 C.ar    1  ZINC000252489163   -0.1000
     21 C21        -3.2522    3.3595   55.3399 C.ar    1  ZINC000252489163   -0.1600
     22 C22        -3.1860    3.7538   53.8869 C.3     1  ZINC000252489163    0.5100
     23 F23        -4.3391    3.3105   53.2304 F       1  ZINC000252489163   -0.1700
     24 F24        -3.0976    5.1464   53.7851 F       1  ZINC000252489163   -0.1800
     25 F25        -2.0598    3.1707   53.2962 F       1  ZINC000252489163   -0.1800
     26 C26        -2.1017    2.9781   56.0051 C.ar    1  ZINC000252489163   -0.0900
     27 H27        -0.4331    3.0645   58.5069 H       1  ZINC000252489163    0.0800
     28 H28        -1.1551    1.4713   58.8364 H       1  ZINC000252489163    0.0700
     29 H29        -0.2146    1.7314   57.3478 H       1  ZINC000252489163    0.0700
     30 H30        -3.4087    2.3498   59.0509 H       1  ZINC000252489163    0.1300
     31 H31        -5.8670    3.6381   58.7833 H       1  ZINC000252489163    0.4100
     32 H32        -7.1887    3.6443   59.6861 H       1  ZINC000252489163    0.0800
     33 H33        -8.8757    3.9193   59.1803 H       1  ZINC000252489163    0.0800
     34 H34        -7.8424    1.6349   60.9236 H       1  ZINC000252489163    0.0700
     35 H35        -8.8677    2.9925   61.4491 H       1  ZINC000252489163    0.0900
     36 H36       -10.2388    0.9737   61.0571 H       1  ZINC000252489163    0.0800
     37 H37       -10.6450    2.2424   59.8769 H       1  ZINC000252489163    0.0800
     38 H38       -11.3961    0.2237   58.1310 H       1  ZINC000252489163    0.4200
     39 H39        -8.5325   -2.1509   58.9172 H       1  ZINC000252489163    0.1300
     40 H40        -9.4798   -3.6560   58.8430 H       1  ZINC000252489163    0.1300
     41 H41        -9.4627   -2.5456   57.4520 H       1  ZINC000252489163    0.1300
     42 H42        -9.8632    2.0223   57.4747 H       1  ZINC000252489163    0.0800
     43 H43        -8.7002    0.7345   57.0673 H       1  ZINC000252489163    0.1100
     44 H44        -5.3592    3.6861   55.4880 H       1  ZINC000252489163    0.1800
     45 H45        -1.1574    2.9598   55.4813 H       1  ZINC000252489163    0.1300
@<TRIPOS>BOND
     1     1     2    1
     2     1    27    1
     3     1    28    1
     4     1    29    1
     5     2    26   ar
     6     2     3   ar
     7     3     4   ar
     8     3    30    1
     9     4     5    1
    10     4    20   ar
    11     5     6   am
    12     5    31    1
    13     6     7    2
    14     6     8   am
    15     8    19    1
    16     8     9    1
    17     9    10    1
    18     9    32    1
    19     9    33    1
    20    10    11    1
    21    10    34    1
    22    10    35    1
    23    11    12    1
    24    11    36    1
    25    11    37    1
    26    12    13    1
    27    12    14    1
    28    12    19    1
    29    14    15   am
    30    14    38    1
    31    15    16    1
    32    15    17    2
    33    15    18    2
    34    16    39    1
    35    16    40    1
    36    16    41    1
    37    19    42    1
    38    19    43    1
    39    20    21   ar
    40    20    44    1
    41    21    22    1
    42    21    26   ar
    43    22    23    1
    44    22    24    1
    45    22    25    1
    46    26    45    1
@<TRIPOS>SUBSTRUCTURE
     1 ZINC000252489163        1 TEMP              0 ****  ****    0 ROOT


##########                                Name:    ZINC000089894387
##########                DOCK_Rotatable_Bonds:                   8
##########                         Heavy_Atoms:                  22
##########                    Molecular_Weight:             326.823
##########                DOCK_Rotatable_Bonds:                   8
##########                       Formal_Charge:          -0.0300003
##########                     HBond_Acceptors:                   6
##########                        HBond_Donors:                   2
##########                         Heavy_Atoms:                  22
##########                          Grid_Score:          -27.078241
##########                     Grid_vdw_energy:          -25.675016
##########                      Grid_es_energy:           -1.403224
##########           Internal_energy_repulsive:           22.820063

@<TRIPOS>MOLECULE
ZINC000089894387
 45 46 1 0 0
SMALL
USER_CHARGES


@<TRIPOS>ATOM
      1 C1         -8.6530    3.5031   55.7937 C.3     1  ZINC000089894387   -0.1700
      2 C2         -7.7829    2.2613   55.9985 C.3     1  ZINC000089894387    0.1700
      3 H3         -7.0170    2.4734   56.7445 H       1  ZINC000089894387    0.0900
      4 N4         -8.6189    1.1499   56.4589 N.am    1  ZINC000089894387   -0.7400
      5 C5         -8.2129    0.3838   57.4907 C.2     1  ZINC000089894387    0.7100
      6 O6         -7.1521    0.6141   58.0385 O.2     1  ZINC000089894387   -0.5900
      7 N7         -8.9827   -0.6378   57.9154 N.am    1  ZINC000089894387   -0.7500
      8 C8         -8.5421   -1.4694   59.0381 C.3     1  ZINC000089894387    0.1400
      9 C9         -9.7512   -1.8534   59.8935 C.3     1  ZINC000089894387    0.0500
     10 O10       -10.8429   -0.9813   59.5940 O.3     1  ZINC000089894387   -0.3100
     11 C11       -12.0784   -1.5424   59.5203 C.ar    1  ZINC000089894387    0.1400
     12 C12       -13.0977   -1.0888   60.3447 C.ar    1  ZINC000089894387   -0.2100
     13 C13       -14.3532   -1.6605   60.2684 C.ar    1  ZINC000089894387   -0.0700
     14 C14       -14.5949   -2.6840   59.3713 C.ar    1  ZINC000089894387   -0.1500
     15 C15       -13.5798   -3.1391   58.5477 C.ar    1  ZINC000089894387    0.0000
     16 Cl16      -13.8865   -4.4246   57.4221 Cl      1  ZINC000089894387   -0.0600
     17 C17       -12.3237   -2.5658   58.6163 C.ar    1  ZINC000089894387   -0.1500
     18 C18        -7.1149    1.8828   54.6751 C.3     1  ZINC000089894387   -0.1000
     19 C19        -8.1866    1.6784   53.6001 C.3     1  ZINC000089894387   -0.1600
     20 C20        -7.5057    1.3776   52.2623 C.3     1  ZINC000089894387    0.0600
     21 O21        -6.6223    2.4498   51.9272 O.3     1  ZINC000089894387   -0.3800
     22 C22        -5.5712    2.6570   52.8730 C.3     1  ZINC000089894387    0.0600
     23 C23        -6.1744    3.0092   54.2353 C.3     1  ZINC000089894387   -0.1500
     24 H24        -9.4189    3.2912   55.0475 H       1  ZINC000089894387    0.0600
     25 H25        -9.1289    3.7728   56.7364 H       1  ZINC000089894387    0.0600
     26 H26        -8.0310    4.3301   55.4510 H       1  ZINC000089894387    0.0700
     27 H27        -9.4646    0.9654   56.0212 H       1  ZINC000089894387    0.3900
     28 H28        -9.8284   -0.8223   57.4776 H       1  ZINC000089894387    0.4000
     29 H29        -8.0657   -2.3723   58.6564 H       1  ZINC000089894387    0.0800
     30 H30        -7.8297   -0.9116   59.6459 H       1  ZINC000089894387    0.0900
     31 H31       -10.0380   -2.8824   59.6762 H       1  ZINC000089894387    0.0900
     32 H32        -9.4931   -1.7633   60.9487 H       1  ZINC000089894387    0.0700
     33 H33       -12.9097   -0.2894   61.0462 H       1  ZINC000089894387    0.1300
     34 H34       -15.1465   -1.3075   60.9105 H       1  ZINC000089894387    0.1400
     35 H35       -15.5770   -3.1295   59.3133 H       1  ZINC000089894387    0.1400
     36 H36       -11.5318   -2.9206   57.9734 H       1  ZINC000089894387    0.1400
     37 H37        -6.5458    0.9622   54.8042 H       1  ZINC000089894387    0.0800
     38 H38        -8.8274    0.8419   53.8789 H       1  ZINC000089894387    0.0700
     39 H39        -8.7871    2.5834   53.5077 H       1  ZINC000089894387    0.0800
     40 H40        -6.9379    0.4508   52.3437 H       1  ZINC000089894387    0.0500
     41 H41        -8.2623    1.2735   51.4845 H       1  ZINC000089894387    0.0900
     42 H42        -4.9781    1.7468   52.9624 H       1  ZINC000089894387    0.0500
     43 H43        -4.9342    3.4743   52.5352 H       1  ZINC000089894387    0.1000
     44 H44        -6.7344    3.9410   54.1558 H       1  ZINC000089894387    0.0800
     45 H45        -5.3761    3.1243   54.9684 H       1  ZINC000089894387    0.0800
@<TRIPOS>BOND
     1     1     2    1
     2     1    24    1
     3     1    25    1
     4     1    26    1
     5     2     3    1
     6     2     4    1
     7     2    18    1
     8     4     5   am
     9     4    27    1
    10     5     6    2
    11     5     7   am
    12     7     8    1
    13     7    28    1
    14     8     9    1
    15     8    29    1
    16     8    30    1
    17     9    10    1
    18     9    31    1
    19     9    32    1
    20    10    11    1
    21    11    17   ar
    22    11    12   ar
    23    12    13   ar
    24    12    33    1
    25    13    14   ar
    26    13    34    1
    27    14    15   ar
    28    14    35    1
    29    15    16    1
    30    15    17   ar
    31    17    36    1
    32    18    23    1
    33    18    19    1
    34    18    37    1
    35    19    20    1
    36    19    38    1
    37    19    39    1
    38    20    21    1
    39    20    40    1
    40    20    41    1
    41    21    22    1
    42    22    23    1
    43    22    42    1
    44    22    43    1
    45    23    44    1
    46    23    45    1
@<TRIPOS>SUBSTRUCTURE
     1 ZINC000089894387        1 TEMP              0 ****  ****    0 ROOT


##########                                Name:    ZINC001009984555
##########                DOCK_Rotatable_Bonds:                   7
##########                         Heavy_Atoms:                  23
##########                    Molecular_Weight:             338.446
##########                DOCK_Rotatable_Bonds:                   7
##########                       Formal_Charge:           0.0400002
##########                     HBond_Acceptors:                   6
##########                        HBond_Donors:                   1
##########                         Heavy_Atoms:                  23
##########                          Grid_Score:          -27.070421
##########                     Grid_vdw_energy:          -22.956200
##########                      Grid_es_energy:           -4.114221
##########           Internal_energy_repulsive:            9.354444

@<TRIPOS>MOLECULE
ZINC001009984555
 46 47 1 0 0
SMALL
USER_CHARGES


@<TRIPOS>ATOM
      1 C1        -16.0855   -1.5199   59.3196 C.3     1  ZINC001009984555   -0.1400
      2 S2        -15.5504   -0.7775   60.8858 S.3     1  ZINC001009984555   -0.1800
      3 C3        -14.0837    0.1756   60.4055 C.3     1  ZINC001009984555   -0.1300
      4 C4        -13.5125    0.8640   61.6183 C.2     1  ZINC001009984555    0.5500
      5 O5        -14.2344    1.1476   62.5508 O.2     1  ZINC001009984555   -0.5100
      6 N6        -12.1996    1.1645   61.6668 N.am    1  ZINC001009984555   -0.6100
      7 C7        -11.2146    0.8857   60.6060 C.3     1  ZINC001009984555    0.1000
      8 C8        -10.0824    1.9179   60.8348 C.3     1  ZINC001009984555   -0.1100
      9 H9        -10.3450    2.8866   60.4097 H       1  ZINC001009984555    0.1000
     10 C10        -8.7561    1.4128   60.2633 C.3     1  ZINC001009984555    0.1300
     11 N11        -8.8379    1.3734   58.8011 N.am    1  ZINC001009984555   -0.7300
     12 C12        -8.1315    0.4561   58.1111 C.2     1  ZINC001009984555    0.5600
     13 O13        -7.4276   -0.3393   58.7021 O.2     1  ZINC001009984555   -0.5200
     14 C14        -8.2128    0.4174   56.6353 C.ar    1  ZINC001009984555   -0.1200
     15 C15        -9.1126   -0.4437   56.0056 C.ar    1  ZINC001009984555   -0.0900
     16 C16        -9.1845   -0.4760   54.6280 C.ar    1  ZINC001009984555   -0.1000
     17 C17        -8.3671    0.3423   53.8699 C.ar    1  ZINC001009984555   -0.1200
     18 C18        -7.4709    1.2001   54.4878 C.ar    1  ZINC001009984555    0.0900
     19 F19        -6.6754    1.9968   53.7410 F       1  ZINC001009984555   -0.1300
     20 C20        -7.3941    1.2460   55.8666 C.ar    1  ZINC001009984555   -0.0500
     21 C21        -6.4197    2.1789   56.5383 C.3     1  ZINC001009984555   -0.1200
     22 C22       -10.0314    1.9859   62.3842 C.3     1  ZINC001009984555   -0.1200
     23 C23       -11.5137    1.8305   62.7838 C.3     1  ZINC001009984555    0.1400
     24 H24       -11.5934    1.2159   63.6805 H       1  ZINC001009984555    0.0800
     25 C25       -12.1306    3.2069   63.0402 C.3     1  ZINC001009984555   -0.1700
     26 H26       -15.2880   -2.1490   58.9246 H       1  ZINC001009984555    0.0800
     27 H27       -16.9756   -2.1256   59.4900 H       1  ZINC001009984555    0.1100
     28 H28       -16.3147   -0.7310   58.6032 H       1  ZINC001009984555    0.0800
     29 H29       -13.3362   -0.4960   59.9832 H       1  ZINC001009984555    0.1100
     30 H30       -14.3629    0.9221   59.6619 H       1  ZINC001009984555    0.1100
     31 H31       -10.8284   -0.1289   60.7040 H       1  ZINC001009984555    0.0800
     32 H32       -11.6647    1.0280   59.6235 H       1  ZINC001009984555    0.0800
     33 H33        -7.9516    2.0841   60.5642 H       1  ZINC001009984555    0.0800
     34 H34        -8.5547    0.4112   60.6431 H       1  ZINC001009984555    0.0800
     35 H35        -9.4006    2.0074   58.3295 H       1  ZINC001009984555    0.4000
     36 H36        -9.7514   -1.0842   56.5957 H       1  ZINC001009984555    0.1300
     37 H37        -9.8807   -1.1424   54.1406 H       1  ZINC001009984555    0.1400
     38 H38        -8.4270    0.3123   52.7919 H       1  ZINC001009984555    0.1400
     39 H39        -6.9341    3.0959   56.8259 H       1  ZINC001009984555    0.0800
     40 H40        -6.0100    1.6983   57.4267 H       1  ZINC001009984555    0.1000
     41 H41        -5.6104    2.4174   55.8482 H       1  ZINC001009984555    0.0600
     42 H42        -9.4320    1.1692   62.7864 H       1  ZINC001009984555    0.0900
     43 H43        -9.6440    2.9494   62.7153 H       1  ZINC001009984555    0.0900
     44 H44       -12.0636    3.8095   62.1343 H       1  ZINC001009984555    0.0600
     45 H45       -13.1769    3.0893   63.3218 H       1  ZINC001009984555    0.0700
     46 H46       -11.5906    3.7025   63.8470 H       1  ZINC001009984555    0.0700
@<TRIPOS>BOND
     1     1     2    1
     2     1    26    1
     3     1    27    1
     4     1    28    1
     5     2     3    1
     6     3     4    1
     7     3    29    1
     8     3    30    1
     9     4     5    2
    10     4     6   am
    11     6    23    1
    12     6     7    1
    13     7     8    1
    14     7    31    1
    15     7    32    1
    16     8     9    1
    17     8    10    1
    18     8    22    1
    19    10    11    1
    20    10    33    1
    21    10    34    1
    22    11    12   am
    23    11    35    1
    24    12    13    2
    25    12    14    1
    26    14    20   ar
    27    14    15   ar
    28    15    16   ar
    29    15    36    1
    30    16    17   ar
    31    16    37    1
    32    17    18   ar
    33    17    38    1
    34    18    19    1
    35    18    20   ar
    36    20    21    1
    37    21    39    1
    38    21    40    1
    39    21    41    1
    40    22    23    1
    41    22    42    1
    42    22    43    1
    43    23    24    1
    44    23    25    1
    45    25    44    1
    46    25    45    1
    47    25    46    1
@<TRIPOS>SUBSTRUCTURE
     1 ZINC001009984555        1 TEMP              0 ****  ****    0 ROOT


##########                                Name:    ZINC000516003207
##########                DOCK_Rotatable_Bonds:                   5
##########                         Heavy_Atoms:                  24
##########                    Molecular_Weight:             342.462
##########                DOCK_Rotatable_Bonds:                   5
##########                       Formal_Charge:          -0.0200001
##########                     HBond_Acceptors:                   5
##########                        HBond_Donors:                   1
##########                         Heavy_Atoms:                  24
##########                          Grid_Score:          -27.066738
##########                     Grid_vdw_energy:          -26.571402
##########                      Grid_es_energy:           -0.495337
##########           Internal_energy_repulsive:            9.712475

@<TRIPOS>MOLECULE
ZINC000516003207
 46 49 1 0 0
SMALL
USER_CHARGES


@<TRIPOS>ATOM
      1 C1         -6.2831    2.1423   50.9216 C.3     1  ZINC000516003207    0.0300
      2 O2         -6.5043    2.3431   52.3190 O.3     1  ZINC000516003207   -0.3600
      3 C3         -7.8469    2.0892   52.7373 C.3     1  ZINC000516003207    0.0900
      4 H4         -8.5889    2.4917   52.0478 H       1  ZINC000516003207    0.0800
      5 C5         -8.1035    0.6244   53.1353 C.3     1  ZINC000516003207   -0.1700
      6 C6         -7.6942    1.0179   54.5663 C.3     1  ZINC000516003207    0.1500
      7 H7         -6.6273    0.9104   54.7614 H       1  ZINC000516003207    0.1200
      8 N8         -8.5277    0.4075   55.6052 N.am    1  ZINC000516003207   -0.7200
      9 C9         -8.1152    0.4108   56.8883 C.2     1  ZINC000516003207    0.5600
     10 O10        -7.0526    0.9216   57.1838 O.2     1  ZINC000516003207   -0.5300
     11 C11        -8.9555   -0.2068   57.9366 C.ar    1  ZINC000516003207   -0.1400
     12 C12        -8.4513   -0.3775   59.2273 C.ar    1  ZINC000516003207   -0.0800
     13 C13        -9.2355   -0.9546   60.2063 C.ar    1  ZINC000516003207   -0.1200
     14 C14       -10.5215   -1.3657   59.9160 C.ar    1  ZINC000516003207   -0.0800
     15 C15       -11.0369   -1.2004   58.6304 C.ar    1  ZINC000516003207   -0.0300
     16 C16       -12.4188   -1.6429   58.3214 C.2     1  ZINC000516003207    0.1100
     17 C17       -12.9383   -1.6116   57.0777 C.2     1  ZINC000516003207   -0.2600
     18 S18       -14.5889   -2.2211   57.1655 S.3     1  ZINC000516003207    0.1400
     19 C19       -14.4256   -2.4581   58.8502 C.2     1  ZINC000516003207    0.0600
     20 C20       -15.5046   -3.0043   59.7495 C.3     1  ZINC000516003207   -0.0800
     21 N21       -13.2494   -2.1093   59.2427 N.2     1  ZINC000516003207   -0.4700
     22 C22       -10.2550   -0.6149   57.6401 C.ar    1  ZINC000516003207   -0.0300
     23 C23        -8.1117    2.4459   54.2004 C.3     1  ZINC000516003207   -0.1100
     24 C24        -7.4445    3.6567   54.8538 C.3     1  ZINC000516003207   -0.1200
     25 C25        -8.7791    4.3953   54.6459 C.3     1  ZINC000516003207   -0.1400
     26 C26        -9.4595    3.0143   54.6458 C.3     1  ZINC000516003207   -0.1200
     27 H27        -6.9291    2.8102   50.3518 H       1  ZINC000516003207    0.0400
     28 H28        -5.2407    2.3553   50.6844 H       1  ZINC000516003207    0.0900
     29 H29        -6.5106    1.1082   50.6626 H       1  ZINC000516003207    0.0400
     30 H30        -9.1480    0.3252   53.0473 H       1  ZINC000516003207    0.0900
     31 H31        -7.4194   -0.0816   52.6647 H       1  ZINC000516003207    0.0800
     32 H32        -9.3763    0.0010   55.3695 H       1  ZINC000516003207    0.4000
     33 H33        -7.4464   -0.0579   59.4603 H       1  ZINC000516003207    0.1300
     34 H34        -8.8412   -1.0854   61.2033 H       1  ZINC000516003207    0.1400
     35 H35       -11.1296   -1.8169   60.6861 H       1  ZINC000516003207    0.1300
     36 H36       -12.4323   -1.2726   56.1858 H       1  ZINC000516003207    0.1800
     37 H37       -16.3947   -3.2206   59.1589 H       1  ZINC000516003207    0.0800
     38 H38       -15.1524   -3.9199   60.2247 H       1  ZINC000516003207    0.0900
     39 H39       -15.7468   -2.2674   60.5154 H       1  ZINC000516003207    0.0900
     40 H40       -10.6500   -0.4850   56.6434 H       1  ZINC000516003207    0.1500
     41 H41        -7.1886    3.5024   55.9021 H       1  ZINC000516003207    0.0800
     42 H42        -6.6206    4.0695   54.2716 H       1  ZINC000516003207    0.0800
     43 H43        -9.0662    5.0228   55.4895 H       1  ZINC000516003207    0.0700
     44 H44        -8.8458    4.9143   53.6896 H       1  ZINC000516003207    0.0800
     45 H45       -10.2454    2.9139   53.8972 H       1  ZINC000516003207    0.0700
     46 H46        -9.7700    2.6795   55.6355 H       1  ZINC000516003207    0.0900
@<TRIPOS>BOND
     1     1     2    1
     2     1    27    1
     3     1    28    1
     4     1    29    1
     5     2     3    1
     6     3     4    1
     7     3    23    1
     8     3     5    1
     9     5     6    1
    10     5    30    1
    11     5    31    1
    12     6     7    1
    13     6     8    1
    14     6    23    1
    15     8     9   am
    16     8    32    1
    17     9    10    2
    18     9    11    1
    19    11    22   ar
    20    11    12   ar
    21    12    13   ar
    22    12    33    1
    23    13    14   ar
    24    13    34    1
    25    14    15   ar
    26    14    35    1
    27    15    16    1
    28    15    22   ar
    29    16    21    1
    30    16    17    2
    31    17    18    1
    32    17    36    1
    33    18    19    1
    34    19    20    1
    35    19    21    2
    36    20    37    1
    37    20    38    1
    38    20    39    1
    39    22    40    1
    40    23    26    1
    41    23    24    1
    42    24    25    1
    43    24    41    1
    44    24    42    1
    45    25    26    1
    46    25    43    1
    47    25    44    1
    48    26    45    1
    49    26    46    1
@<TRIPOS>SUBSTRUCTURE
     1 ZINC000516003207        1 TEMP              0 ****  ****    0 ROOT


##########                                Name:    ZINC001098311495
##########                DOCK_Rotatable_Bonds:                   8
##########                         Heavy_Atoms:                  24
##########                    Molecular_Weight:             328.454
##########                DOCK_Rotatable_Bonds:                   8
##########                       Formal_Charge:          0.00999987
##########                     HBond_Acceptors:                   4
##########                        HBond_Donors:                   1
##########                         Heavy_Atoms:                  24
##########                          Grid_Score:          -27.066322
##########                     Grid_vdw_energy:          -27.198526
##########                      Grid_es_energy:            0.132204
##########           Internal_energy_repulsive:           37.494434

@<TRIPOS>MOLECULE
ZINC001098311495
 52 54 1 0 0
SMALL
USER_CHARGES


@<TRIPOS>ATOM
      1 C1         -8.2352    2.2983   53.3074 C.3     1  ZINC001098311495   -0.1500
      2 C2         -7.6824    1.0780   54.0464 C.3     1  ZINC001098311495    0.0500
      3 O3         -7.7220    1.3158   55.4550 O.3     1  ZINC001098311495   -0.2800
      4 C4         -6.7274    2.0745   55.9796 C.ar    1  ZINC001098311495    0.1900
      5 C5         -5.7669    2.6340   55.1505 C.ar    1  ZINC001098311495   -0.2200
      6 C6         -4.7512    3.4008   55.6867 C.ar    1  ZINC001098311495   -0.0500
      7 C7         -4.6871    3.6226   57.0524 C.ar    1  ZINC001098311495   -0.1700
      8 C8         -5.6368    3.0794   57.8906 C.ar    1  ZINC001098311495   -0.0500
      9 C9         -6.6692    2.3015   57.3616 C.ar    1  ZINC001098311495   -0.1800
     10 C10        -7.6893    1.7169   58.2531 C.2     1  ZINC001098311495    0.5600
     11 O11        -8.4282    2.4429   58.8898 O.2     1  ZINC001098311495   -0.5200
     12 N12        -7.8019    0.3783   58.3617 N.am    1  ZINC001098311495   -0.7200
     13 C13        -8.8159   -0.2021   59.2455 C.3     1  ZINC001098311495    0.1600
     14 H14        -8.8703    0.3531   60.1819 H       1  ZINC001098311495    0.1000
     15 C15        -8.5155   -1.6977   59.5113 C.3     1  ZINC001098311495   -0.1200
     16 C16        -9.7647   -2.4286   58.9329 C.3     1  ZINC001098311495    0.0500
     17 H17        -9.6223   -3.4808   58.6870 H       1  ZINC001098311495    0.1100
     18 C18       -10.9295   -2.1200   59.9214 C.3     1  ZINC001098311495   -0.1500
     19 C19       -11.2420   -0.6267   59.6577 C.3     1  ZINC001098311495   -0.1500
     20 C20       -10.2063   -0.2292   58.5420 C.3     1  ZINC001098311495    0.0400
     21 H21       -10.4645    0.6517   57.9542 H       1  ZINC001098311495    0.1200
     22 N22       -10.1185   -1.5258   57.7800 N.3     1  ZINC001098311495   -0.4900
     23 C23       -11.4216   -1.8892   57.2074 C.3     1  ZINC001098311495    0.0600
     24 C24       -11.8304   -0.8536   56.1919 C.2     1  ZINC001098311495   -0.1600
     25 C25       -11.2434   -0.8167   55.0212 C.2     1  ZINC001098311495   -0.1200
     26 C26       -11.6522    0.2188   54.0056 C.3     1  ZINC001098311495   -0.1200
     27 C27       -10.1593   -1.8099   54.6904 C.3     1  ZINC001098311495   -0.1200
     28 H28        -9.2652    2.4749   53.6173 H       1  ZINC001098311495    0.0700
     29 H29        -7.6292    3.1725   53.5455 H       1  ZINC001098311495    0.0700
     30 H30        -8.2050    2.1169   52.2331 H       1  ZINC001098311495    0.0800
     31 H31        -6.6525    0.9014   53.7366 H       1  ZINC001098311495    0.0600
     32 H32        -8.2885    0.2038   53.8084 H       1  ZINC001098311495    0.0600
     33 H33        -5.8104    2.4658   54.0846 H       1  ZINC001098311495    0.1300
     34 H34        -4.0028    3.8304   55.0374 H       1  ZINC001098311495    0.1300
     35 H35        -3.8893    4.2243   57.4624 H       1  ZINC001098311495    0.1300
     36 H36        -5.5827    3.2547   58.9549 H       1  ZINC001098311495    0.1300
     37 H37        -7.2116   -0.2008   57.8546 H       1  ZINC001098311495    0.4000
     38 H38        -8.4218   -1.8861   60.5808 H       1  ZINC001098311495    0.0800
     39 H39        -7.6123   -2.0070   58.9855 H       1  ZINC001098311495    0.0800
     40 H40       -11.7978   -2.7394   59.6965 H       1  ZINC001098311495    0.0700
     41 H41       -10.6075   -2.2685   60.9522 H       1  ZINC001098311495    0.0800
     42 H42       -12.2653   -0.5058   59.3020 H       1  ZINC001098311495    0.0700
     43 H43       -11.0750   -0.0349   60.5577 H       1  ZINC001098311495    0.0800
     44 H44       -12.1674   -1.9340   58.0011 H       1  ZINC001098311495    0.0500
     45 H45       -11.3470   -2.8631   56.7236 H       1  ZINC001098311495    0.0800
     46 H46       -12.6074   -0.1419   56.4289 H       1  ZINC001098311495    0.1100
     47 H47       -12.4568   -0.1775   53.3863 H       1  ZINC001098311495    0.0700
     48 H48       -10.7978    0.4674   53.3760 H       1  ZINC001098311495    0.0600
     49 H49       -11.9976    1.1156   54.5199 H       1  ZINC001098311495    0.0600
     50 H50        -9.2037   -1.4429   55.0648 H       1  ZINC001098311495    0.0700
     51 H51       -10.3890   -2.7675   55.1574 H       1  ZINC001098311495    0.0600
     52 H52       -10.1011   -1.9375   53.6094 H       1  ZINC001098311495    0.0600
@<TRIPOS>BOND
     1     1     2    1
     2     1    28    1
     3     1    29    1
     4     1    30    1
     5     2     3    1
     6     2    31    1
     7     2    32    1
     8     3     4    1
     9     4     9   ar
    10     4     5   ar
    11     5     6   ar
    12     5    33    1
    13     6     7   ar
    14     6    34    1
    15     7     8   ar
    16     7    35    1
    17     8     9   ar
    18     8    36    1
    19     9    10    1
    20    10    11    2
    21    10    12   am
    22    12    13    1
    23    12    37    1
    24    13    14    1
    25    13    20    1
    26    13    15    1
    27    15    16    1
    28    15    38    1
    29    15    39    1
    30    16    17    1
    31    16    22    1
    32    16    18    1
    33    18    19    1
    34    18    40    1
    35    18    41    1
    36    19    20    1
    37    19    42    1
    38    19    43    1
    39    20    21    1
    40    20    22    1
    41    22    23    1
    42    23    24    1
    43    23    44    1
    44    23    45    1
    45    24    25    2
    46    24    46    1
    47    25    26    1
    48    25    27    1
    49    26    47    1
    50    26    48    1
    51    26    49    1
    52    27    50    1
    53    27    51    1
    54    27    52    1
@<TRIPOS>SUBSTRUCTURE
     1 ZINC001098311495        1 TEMP              0 ****  ****    0 ROOT


##########                                Name:    ZINC001176298561
##########                DOCK_Rotatable_Bonds:                   6
##########                         Heavy_Atoms:                  23
##########                    Molecular_Weight:             337.781
##########                DOCK_Rotatable_Bonds:                   6
##########                       Formal_Charge:          -0.0100003
##########                     HBond_Acceptors:                   7
##########                        HBond_Donors:                   2
##########                         Heavy_Atoms:                  23
##########                          Grid_Score:          -27.055286
##########                     Grid_vdw_energy:          -26.257664
##########                      Grid_es_energy:           -0.797623
##########           Internal_energy_repulsive:           22.689367

@<TRIPOS>MOLECULE
ZINC001176298561
 40 41 1 0 0
SMALL
USER_CHARGES


@<TRIPOS>ATOM
      1 C1         -6.7163    0.5871   52.2680 C.3     1  ZINC001176298561   -0.1700
      2 C2         -7.0840    1.4147   53.5012 C.3     1  ZINC001176298561    0.1100
      3 N3         -8.4065    1.0100   53.9842 N.am    1  ZINC001176298561   -0.6100
      4 C4         -9.5568    1.0349   53.0773 C.3     1  ZINC001176298561    0.0900
      5 C5         -9.8210    2.4735   52.6281 C.3     1  ZINC001176298561   -0.1800
      6 C6         -8.5650    0.6146   55.2629 C.2     1  ZINC001176298561    0.5600
      7 O7         -7.6107    0.5938   56.0153 O.2     1  ZINC001176298561   -0.5300
      8 C8         -9.9000    0.2061   55.7504 C.ar    1  ZINC001176298561   -0.0600
      9 C9        -10.9641    1.1084   55.7149 C.ar    1  ZINC001176298561   -0.1900
     10 C10       -12.2114    0.7241   56.1716 C.ar    1  ZINC001176298561    0.1400
     11 F11       -13.2407    1.5984   56.1361 F       1  ZINC001176298561   -0.1300
     12 C12       -12.4085   -0.5543   56.6642 C.ar    1  ZINC001176298561   -0.1800
     13 C13       -11.3536   -1.4589   56.7029 C.ar    1  ZINC001176298561    0.2400
     14 N14       -11.5573   -2.7480   57.2005 N.pl3   1  ZINC001176298561   -0.6700
     15 C15       -12.7440   -3.0585   57.8754 C.2     1  ZINC001176298561    0.0400
     16 C16       -13.0979   -2.3719   59.0048 C.2     1  ZINC001176298561   -0.0300
     17 C17       -14.2927   -2.7027   59.6616 C.2     1  ZINC001176298561   -0.1300
     18 Cl18      -14.7606   -1.8441   61.0961 Cl      1  ZINC001176298561   -0.0400
     19 C19       -15.0807   -3.6905   59.1772 C.2     1  ZINC001176298561    0.1400
     20 N20       -14.7299   -4.3741   58.0541 N.am    1  ZINC001176298561   -0.6000
     21 C21       -13.5928   -4.0800   57.3953 C.2     1  ZINC001176298561    0.5100
     22 O22       -13.2916   -4.7018   56.3890 O.2     1  ZINC001176298561   -0.5200
     23 C23       -10.1006   -1.0837   56.2417 C.ar    1  ZINC001176298561   -0.1300
     24 H24        -5.7322    0.8881   51.9086 H       1  ZINC001176298561    0.0700
     25 H25        -6.6989   -0.4703   52.5319 H       1  ZINC001176298561    0.0600
     26 H26        -7.4558    0.7539   51.4847 H       1  ZINC001176298561    0.0600
     27 H27        -6.3445    1.2478   54.2844 H       1  ZINC001176298561    0.0800
     28 H28        -7.1014    2.4721   53.2373 H       1  ZINC001176298561    0.0900
     29 H29        -9.3461    0.4151   52.2059 H       1  ZINC001176298561    0.0900
     30 H30       -10.4354    0.6486   53.5941 H       1  ZINC001176298561    0.0800
     31 H31        -8.8718    2.9765   52.4433 H       1  ZINC001176298561    0.0700
     32 H32       -10.4123    2.4654   51.7124 H       1  ZINC001176298561    0.0700
     33 H33       -10.3672    3.0034   53.4085 H       1  ZINC001176298561    0.0600
     34 H34       -10.8133    2.1066   55.3314 H       1  ZINC001176298561    0.1500
     35 H35       -13.3845   -0.8496   57.0200 H       1  ZINC001176298561    0.1300
     36 H36       -10.8765   -3.4281   57.0786 H       1  ZINC001176298561    0.4200
     37 H37       -12.4648   -1.5846   59.3864 H       1  ZINC001176298561    0.1500
     38 H38       -15.9990   -3.9394   59.6884 H       1  ZINC001176298561    0.1800
     39 H39       -15.3075   -5.0793   57.7222 H       1  ZINC001176298561    0.4300
     40 H40        -9.2803   -1.7855   56.2712 H       1  ZINC001176298561    0.1400
@<TRIPOS>BOND
     1     1     2    1
     2     1    24    1
     3     1    25    1
     4     1    26    1
     5     2     3    1
     6     2    27    1
     7     2    28    1
     8     3     4    1
     9     3     6   am
    10     4     5    1
    11     4    29    1
    12     4    30    1
    13     5    31    1
    14     5    32    1
    15     5    33    1
    16     6     7    2
    17     6     8    1
    18     8    23   ar
    19     8     9   ar
    20     9    10   ar
    21     9    34    1
    22    10    11    1
    23    10    12   ar
    24    12    13   ar
    25    12    35    1
    26    13    14    1
    27    13    23   ar
    28    14    15    1
    29    14    36    1
    30    15    21    1
    31    15    16    2
    32    16    17    1
    33    16    37    1
    34    17    18    1
    35    17    19    2
    36    19    20    1
    37    19    38    1
    38    20    21   am
    39    20    39    1
    40    21    22    2
    41    23    40    1
@<TRIPOS>SUBSTRUCTURE
     1 ZINC001176298561        1 TEMP              0 ****  ****    0 ROOT


##########                                Name:    ZINC000285228948
##########                DOCK_Rotatable_Bonds:                   8
##########                         Heavy_Atoms:                  23
##########                    Molecular_Weight:             339.822
##########                DOCK_Rotatable_Bonds:                   8
##########                       Formal_Charge:           0.0299997
##########                     HBond_Acceptors:                   7
##########                        HBond_Donors:                   3
##########                         Heavy_Atoms:                  23
##########                          Grid_Score:          -27.022707
##########                     Grid_vdw_energy:          -25.800968
##########                      Grid_es_energy:           -1.221740
##########           Internal_energy_repulsive:           28.085526

@<TRIPOS>MOLECULE
ZINC000285228948
 45 46 1 0 0
SMALL
USER_CHARGES


@<TRIPOS>ATOM
      1 C1        -10.6209    1.3669   61.3330 C.3     1  <0>        -0.1600
      2 C2        -10.6658    0.6269   59.9946 C.3     1  <0>         0.1800
      3 H3        -10.7902    1.3467   59.1855 H       1  <0>         0.1100
      4 C4        -11.8244   -0.3368   59.9922 C.ar    1  <0>        -0.0900
      5 C5        -13.0298    0.0303   60.5610 C.ar    1  <0>        -0.1000
      6 C6        -14.0926   -0.8531   60.5591 C.ar    1  <0>        -0.1100
      7 C7        -13.9502   -2.1051   59.9879 C.ar    1  <0>        -0.0300
      8 Cl8       -15.2849   -3.2152   59.9846 Cl      1  <0>        -0.0700
      9 C9        -12.7436   -2.4720   59.4188 C.ar    1  <0>        -0.1100
     10 C10       -11.6831   -1.5856   59.4162 C.ar    1  <0>        -0.0900
     11 N11        -9.4155   -0.1120   59.8030 N.am    1  <0>        -0.6100
     12 C12        -8.9593   -1.0574   60.8249 C.3     1  <0>         0.0600
     13 C13        -8.6849    0.0778   58.6864 C.2     1  <0>         0.5200
     14 O14        -7.6489   -0.5329   58.5284 O.2     1  <0>        -0.5200
     15 C15        -9.1550    1.0489   57.6343 C.3     1  <0>         0.0300
     16 N16        -8.3549    0.8747   56.4147 N.3     1  <0>        -0.4900
     17 C17        -7.6268    2.1234   56.0730 C.3     1  <0>         0.0400
     18 C18        -7.3000    1.9431   54.5692 C.3     1  <0>        -0.1400
     19 C19        -8.5630    1.2384   54.0231 C.3     1  <0>         0.1100
     20 O20        -9.4503    2.1938   53.4383 O.3     1  <0>        -0.5400
     21 C21        -8.1806    0.1917   53.0086 C.2     1  <0>         0.5000
     22 N22        -7.1989    0.4417   52.1196 N.am    1  <0>        -0.8500
     23 O23        -8.7562   -0.8757   52.9922 O.2     1  <0>        -0.5200
     24 C24        -9.2194    0.5809   55.2511 C.3     1  <0>         0.0600
     25 H25       -11.5512    1.9167   61.4756 H       1  <0>         0.0700
     26 H26       -10.4965    0.6472   62.1421 H       1  <0>         0.0600
     27 H27        -9.7829    2.0640   61.3348 H       1  <0>         0.0700
     28 H28       -13.1407    1.0075   61.0071 H       1  <0>         0.1400
     29 H29       -15.0342   -0.5663   61.0037 H       1  <0>         0.1300
     30 H30       -12.6317   -3.4493   58.9731 H       1  <0>         0.1400
     31 H31       -10.7414   -1.8718   58.9718 H       1  <0>         0.1300
     32 H32        -9.3977   -2.0371   60.6352 H       1  <0>         0.0600
     33 H33        -7.8724   -1.1329   60.7907 H       1  <0>         0.0800
     34 H34        -9.2682   -0.7055   61.8092 H       1  <0>         0.0800
     35 H35       -10.2051    0.8612   57.4099 H       1  <0>         0.1100
     36 H36        -9.0387    2.0681   58.0027 H       1  <0>         0.0700
     37 H37        -8.2637    2.9945   56.2265 H       1  <0>         0.0400
     38 H38        -6.7110    2.2072   56.6584 H       1  <0>         0.1200
     39 H39        -7.1586    2.9101   54.0865 H       1  <0>         0.0900
     40 H40        -6.4199    1.3133   54.4386 H       1  <0>         0.0900
     41 H41        -9.5734    2.9927   53.9692 H       1  <0>         0.3800
     42 H42        -6.9535   -0.2315   51.4659 H       1  <0>         0.4000
     43 H43        -6.7378    1.2951   52.1336 H       1  <0>         0.4100
     44 H44        -9.2888   -0.4967   55.1027 H       1  <0>         0.1100
     45 H45       -10.2125    1.0010   55.4108 H       1  <0>         0.0700
@<TRIPOS>BOND
     1     1     2    1
     2     1    25    1
     3     1    26    1
     4     1    27    1
     5     2     3    1
     6     2     4    1
     7     2    11    1
     8     4    10   ar
     9     4     5   ar
    10     5     6   ar
    11     5    28    1
    12     6     7   ar
    13     6    29    1
    14     7     8    1
    15     7     9   ar
    16     9    10   ar
    17     9    30    1
    18    10    31    1
    19    11    12    1
    20    11    13   am
    21    12    32    1
    22    12    33    1
    23    12    34    1
    24    13    14    2
    25    13    15    1
    26    15    16    1
    27    15    35    1
    28    15    36    1
    29    16    24    1
    30    16    17    1
    31    17    18    1
    32    17    37    1
    33    17    38    1
    34    18    19    1
    35    18    39    1
    36    18    40    1
    37    19    20    1
    38    19    21    1
    39    19    24    1
    40    20    41    1
    41    21    22   am
    42    21    23    2
    43    22    42    1
    44    22    43    1
    45    24    44    1
    46    24    45    1
@<TRIPOS>SUBSTRUCTURE
     1 <0>         1 TEMP              0 ****  ****    0 ROOT


##########                                Name:    ZINC000444205493
##########                DOCK_Rotatable_Bonds:                   4
##########                         Heavy_Atoms:                  24
##########                    Molecular_Weight:             415.351
##########                DOCK_Rotatable_Bonds:                   4
##########                       Formal_Charge:         -0.00999995
##########                     HBond_Acceptors:                   6
##########                        HBond_Donors:                   1
##########                         Heavy_Atoms:                  24
##########                          Grid_Score:          -27.014740
##########                     Grid_vdw_energy:          -24.511637
##########                      Grid_es_energy:           -2.503103
##########           Internal_energy_repulsive:          158.565842

@<TRIPOS>MOLECULE
ZINC000444205493
 47 49 1 0 0
SMALL
USER_CHARGES


@<TRIPOS>ATOM
      1 C1          2.4782    0.0427   61.9811 C.3     1  ZINC000444205493   -0.1700
      2 C2          2.6247    0.8206   60.6988 C.2     1  ZINC000444205493    0.5100
      3 O3          3.7259    1.0117   60.2278 O.2     1  ZINC000444205493   -0.5100
      4 N4          1.5320    1.3040   60.0752 N.am    1  ZINC000444205493   -0.6800
      5 C5          1.6681    2.0265   58.8843 C.ar    1  ZINC000444205493    0.2300
      6 C6          2.9273    2.2411   58.3408 C.ar    1  ZINC000444205493   -0.1400
      7 C7          3.0583    2.9541   57.1648 C.ar    1  ZINC000444205493    0.0200
      8 C8          1.9372    3.4545   56.5290 C.ar    1  ZINC000444205493   -0.6900
      9 S9          2.1093    4.3638   55.0296 S.o2    1  ZINC000444205493    2.7100
     10 O10         0.7972    4.7428   54.6373 O.2     1  ZINC000444205493   -0.9500
     11 O11         3.1568    5.2995   55.2458 O.2     1  ZINC000444205493   -0.9500
     12 N12         2.6558    3.3085   53.8763 N.am    1  ZINC000444205493   -1.0100
     13 C13         3.9194    2.5495   53.9342 C.3     1  ZINC000444205493    0.1200
     14 C14         3.6892    1.3186   53.0192 C.3     1  ZINC000444205493   -0.1200
     15 C15         2.8185    1.9256   51.9021 C.3     1  ZINC000444205493   -0.0700
     16 C16         3.6905    2.5686   50.8187 C.3     1  ZINC000444205493   -0.1100
     17 C17         3.7530    1.4928   49.7027 C.3     1  ZINC000444205493   -0.1200
     18 C18         2.3291    0.8813   49.7320 C.3     1  ZINC000444205493   -0.1000
     19 H19         1.6325    1.5101   49.1774 H       1  ZINC000444205493    0.0700
     20 C20         2.3434   -0.5363   49.1566 C.3     1  ZINC000444205493   -0.1500
     21 C21         1.9576    0.8554   51.2320 C.3     1  ZINC000444205493   -0.1100
     22 C22         1.9578    2.9669   52.6251 C.3     1  ZINC000444205493    0.1300
     23 C23         0.6810    3.2424   57.0670 C.ar    1  ZINC000444205493    0.0300
     24 C24         0.5424    2.5256   58.2400 C.ar    1  ZINC000444205493   -0.1500
     25 Br25       -1.1756    2.2361   58.9753 Br      1  ZINC000444205493   -0.0300
     26 H26         3.4626   -0.2642   62.3343 H       1  ZINC000444205493    0.1000
     27 H27         2.0013    0.6701   62.7342 H       1  ZINC000444205493    0.1000
     28 H28         1.8647   -0.8403   61.8023 H       1  ZINC000444205493    0.1000
     29 H29         0.6513    1.1513   60.4519 H       1  ZINC000444205493    0.4200
     30 H30         3.8038    1.8512   58.8370 H       1  ZINC000444205493    0.1600
     31 H31         4.0379    3.1212   56.7417 H       1  ZINC000444205493    0.1500
     32 H32         4.7429    3.1549   53.5552 H       1  ZINC000444205493    0.0800
     33 H33         4.1225    2.2293   54.9562 H       1  ZINC000444205493    0.0800
     34 H34         4.6328    0.9458   52.6205 H       1  ZINC000444205493    0.0900
     35 H35         3.1525    0.5319   53.5494 H       1  ZINC000444205493    0.0800
     36 H36         3.2255    3.4808   50.4449 H       1  ZINC000444205493    0.0700
     37 H37         4.6882    2.7774   51.2048 H       1  ZINC000444205493    0.0700
     38 H38         3.9559    1.9519   48.7352 H       1  ZINC000444205493    0.0700
     39 H39         4.5024    0.7369   49.9372 H       1  ZINC000444205493    0.0700
     40 H40         3.0297   -1.1558   49.7338 H       1  ZINC000444205493    0.0500
     41 H41         1.3403   -0.9597   49.2086 H       1  ZINC000444205493    0.0500
     42 H42         2.6702   -0.5033   48.1172 H       1  ZINC000444205493    0.0500
     43 H43         2.1795   -0.1239   51.6562 H       1  ZINC000444205493    0.0700
     44 H44         0.9009    1.0896   51.3606 H       1  ZINC000444205493    0.0700
     45 H45         0.9745    2.5502   52.8430 H       1  ZINC000444205493    0.0700
     46 H46         1.8555    3.8589   52.0070 H       1  ZINC000444205493    0.0800
     47 H47        -0.1929    3.6343   56.5678 H       1  ZINC000444205493    0.1500
@<TRIPOS>BOND
     1     1     2    1
     2     1    26    1
     3     1    27    1
     4     1    28    1
     5     2     3    2
     6     2     4   am
     7     4     5    1
     8     4    29    1
     9     5    24   ar
    10     5     6   ar
    11     6     7   ar
    12     6    30    1
    13     7     8   ar
    14     7    31    1
    15     8     9    1
    16     8    23   ar
    17     9    10    2
    18     9    11    2
    19     9    12   am
    20    12    22    1
    21    12    13    1
    22    13    14    1
    23    13    32    1
    24    13    33    1
    25    14    15    1
    26    14    34    1
    27    14    35    1
    28    15    21    1
    29    15    16    1
    30    15    22    1
    31    16    17    1
    32    16    36    1
    33    16    37    1
    34    17    18    1
    35    17    38    1
    36    17    39    1
    37    18    19    1
    38    18    20    1
    39    18    21    1
    40    20    40    1
    41    20    41    1
    42    20    42    1
    43    21    43    1
    44    21    44    1
    45    22    45    1
    46    22    46    1
    47    23    24   ar
    48    23    47    1
    49    24    25    1
@<TRIPOS>SUBSTRUCTURE
     1 ZINC000444205493        1 TEMP              0 ****  ****    0 ROOT


##########                                Name:    ZINC000948289723
##########                DOCK_Rotatable_Bonds:                   6
##########                         Heavy_Atoms:                  24
##########                    Molecular_Weight:             331.415
##########                DOCK_Rotatable_Bonds:                   6
##########                       Formal_Charge:           0.0599999
##########                     HBond_Acceptors:                   6
##########                        HBond_Donors:                   1
##########                         Heavy_Atoms:                  24
##########                          Grid_Score:          -26.979748
##########                     Grid_vdw_energy:          -25.674843
##########                      Grid_es_energy:           -1.304905
##########           Internal_energy_repulsive:            6.802366

@<TRIPOS>MOLECULE
ZINC000948289723
 49 52 1 0 0
SMALL
USER_CHARGES


@<TRIPOS>ATOM
      1 C1         -8.5550    3.5366   52.3096 C.3     1  ZINC000948289723   -0.1400
      2 C2         -7.9311    2.6866   53.4183 C.3     1  ZINC000948289723   -0.1100
      3 C3         -8.9524    2.1636   54.4421 C.3     1  ZINC000948289723   -0.1100
      4 C4         -8.1684    0.8406   54.4307 C.3     1  ZINC000948289723   -0.1400
      5 C5         -9.0479   -0.3826   54.4687 C.2     1  ZINC000948289723    0.5400
      6 O6         -9.2573   -1.0107   53.4526 O.2     1  ZINC000948289723   -0.5300
      7 N7         -9.6018   -0.7784   55.6318 N.am    1  ZINC000948289723   -0.6200
      8 C8        -10.4755   -1.9472   55.8108 C.3     1  ZINC000948289723    0.1100
      9 C9        -10.8425   -2.0200   57.3080 C.3     1  ZINC000948289723   -0.1100
     10 H10       -11.8068   -1.5465   57.4922 H       1  ZINC000948289723    0.1000
     11 C11       -10.8526   -3.4711   57.7930 C.3     1  ZINC000948289723   -0.1400
     12 C12        -9.6993   -1.2188   57.9853 C.3     1  ZINC000948289723    0.1400
     13 H13        -8.8172   -1.8425   58.1292 H       1  ZINC000948289723    0.1200
     14 N14       -10.1440   -0.6418   59.2563 N.am    1  ZINC000948289723   -0.7100
     15 C15        -9.2812    0.0623   60.0153 C.2     1  ZINC000948289723    0.6100
     16 O16        -8.1341    0.2200   59.6445 O.2     1  ZINC000948289723   -0.5000
     17 C17        -9.7285    0.6418   61.2960 C.2     1  ZINC000948289723   -0.0900
     18 C18        -8.9757    1.3694   62.1769 C.2     1  ZINC000948289723   -0.1400
     19 C19        -9.8776    1.6748   63.2204 C.2     1  ZINC000948289723    0.0500
     20 C20        -9.5781    2.4671   64.4669 C.3     1  ZINC000948289723   -0.0900
     21 C21       -10.5305    2.3043   65.6532 C.3     1  ZINC000948289723   -0.1600
     22 C22        -9.1299    1.6907   65.7068 C.3     1  ZINC000948289723   -0.1600
     23 N23       -11.0178    1.1386   62.8949 N.2     1  ZINC000948289723   -0.3300
     24 O24       -10.9616    0.5667   61.8314 O.3     1  ZINC000948289723    0.1200
     25 C25        -9.4268   -0.1147   56.9366 C.3     1  ZINC000948289723    0.0900
     26 C26        -7.7020    1.2203   53.0155 C.3     1  ZINC000948289723   -0.1200
     27 H27        -9.5237    3.1199   52.0338 H       1  ZINC000948289723    0.0600
     28 H28        -8.6870    4.5582   52.6657 H       1  ZINC000948289723    0.0600
     29 H29        -7.8987    3.5371   51.4393 H       1  ZINC000948289723    0.0600
     30 H30        -7.0581    3.1565   53.8714 H       1  ZINC000948289723    0.0900
     31 H31        -8.9169    2.6840   55.3993 H       1  ZINC000948289723    0.0700
     32 H32        -9.9635    2.0755   54.0444 H       1  ZINC000948289723    0.1000
     33 H33        -7.3618    0.8048   55.1629 H       1  ZINC000948289723    0.1100
     34 H34       -11.3793   -1.8295   55.2129 H       1  ZINC000948289723    0.0800
     35 H35        -9.9477   -2.8535   55.5140 H       1  ZINC000948289723    0.0800
     36 H36        -9.8717   -3.9164   57.6273 H       1  ZINC000948289723    0.0600
     37 H37       -11.0884   -3.4970   58.8569 H       1  ZINC000948289723    0.0600
     38 H38       -11.6050   -4.0336   57.2403 H       1  ZINC000948289723    0.0700
     39 H39       -11.0596   -0.7666   59.5516 H       1  ZINC000948289723    0.4100
     40 H40        -7.9349    1.6453   62.0941 H       1  ZINC000948289723    0.1800
     41 H41        -9.1400    3.4518   64.3040 H       1  ZINC000948289723    0.1300
     42 H42       -10.7193    3.1822   66.2712 H       1  ZINC000948289723    0.1100
     43 H43       -11.3736    1.6243   65.5322 H       1  ZINC000948289723    0.1000
     44 H44        -9.0517    0.6069   65.6209 H       1  ZINC000948289723    0.1000
     45 H45        -8.3973    2.1648   66.3599 H       1  ZINC000948289723    0.1100
     46 H46        -8.4100    0.2641   57.0400 H       1  ZINC000948289723    0.0900
     47 H47       -10.1473    0.6961   57.0434 H       1  ZINC000948289723    0.0800
     48 H48        -8.3711    0.8743   52.2276 H       1  ZINC000948289723    0.0900
     49 H49        -6.6570    0.9792   52.8207 H       1  ZINC000948289723    0.0800
@<TRIPOS>BOND
     1     1     2    1
     2     1    27    1
     3     1    28    1
     4     1    29    1
     5     2    26    1
     6     2     3    1
     7     2    30    1
     8     3     4    1
     9     3    31    1
    10     3    32    1
    11     4     5    1
    12     4    26    1
    13     4    33    1
    14     5     6    2
    15     5     7   am
    16     7    25    1
    17     7     8    1
    18     8     9    1
    19     8    34    1
    20     8    35    1
    21     9    10    1
    22     9    11    1
    23     9    12    1
    24    11    36    1
    25    11    37    1
    26    11    38    1
    27    12    13    1
    28    12    14    1
    29    12    25    1
    30    14    15   am
    31    14    39    1
    32    15    16    2
    33    15    17    1
    34    17    24    1
    35    17    18    2
    36    18    19    1
    37    18    40    1
    38    19    20    1
    39    19    23    2
    40    20    22    1
    41    20    21    1
    42    20    41    1
    43    21    22    1
    44    21    42    1
    45    21    43    1
    46    22    44    1
    47    22    45    1
    48    23    24    1
    49    25    46    1
    50    25    47    1
    51    26    48    1
    52    26    49    1
@<TRIPOS>SUBSTRUCTURE
     1 ZINC000948289723        1 TEMP              0 ****  ****    0 ROOT


##########                                Name:    ZINC001064463188
##########                DOCK_Rotatable_Bonds:                   6
##########                         Heavy_Atoms:                  25
##########                    Molecular_Weight:             342.441
##########                DOCK_Rotatable_Bonds:                   6
##########                       Formal_Charge:          -0.0100004
##########                     HBond_Acceptors:                   6
##########                        HBond_Donors:                   0
##########                         Heavy_Atoms:                  25
##########                          Grid_Score:          -26.979576
##########                     Grid_vdw_energy:          -27.218674
##########                      Grid_es_energy:            0.239097
##########           Internal_energy_repulsive:           15.111323

@<TRIPOS>MOLECULE
ZINC001064463188
 51 54 1 0 0
SMALL
USER_CHARGES


@<TRIPOS>ATOM
      1 C1         -6.7399   -0.3280   66.7070 C.3     1  ZINC001064463188    0.0400
      2 O2         -7.8359   -0.6583   65.8516 O.3     1  ZINC001064463188   -0.3000
      3 C3         -8.6350    0.3614   65.4537 C.ar    1  ZINC001064463188    0.3900
      4 C4         -9.0464    1.3334   66.3641 C.ar    1  ZINC001064463188   -0.2800
      5 C5         -9.8612    2.3557   65.9145 C.ar    1  ZINC001064463188    0.2000
      6 N6        -10.2247    2.3816   64.6414 N.ar    1  ZINC001064463188   -0.5800
      7 C7         -9.8179    1.4436   63.7987 C.ar    1  ZINC001064463188    0.5300
      8 N8        -10.2185    1.5053   62.4754 N.3     1  ZINC001064463188   -0.4500
      9 C9        -11.6393    1.8301   62.3731 C.3     1  ZINC001064463188    0.0700
     10 C10       -12.3102    0.9401   61.3200 C.3     1  ZINC001064463188   -0.1200
     11 C11       -11.8143    1.2436   59.9191 C.3     1  ZINC001064463188    0.1400
     12 H12       -12.2683    0.5544   59.2070 H       1  ZINC001064463188    0.0900
     13 C13       -12.1182    2.6873   59.5137 C.3     1  ZINC001064463188   -0.1300
     14 C14       -10.8857    3.4801   59.9833 C.3     1  ZINC001064463188   -0.1300
     15 C15        -9.8002    2.4268   60.2306 C.3     1  ZINC001064463188    0.1200
     16 H16        -8.9373    2.6327   59.5973 H       1  ZINC001064463188    0.0900
     17 C17        -9.3675    2.4500   61.7047 C.3     1  ZINC001064463188    0.0600
     18 N18       -10.3316    1.0733   59.9175 N.am    1  ZINC001064463188   -0.6000
     19 C19        -9.6236   -0.0503   59.6870 C.2     1  ZINC001064463188    0.5800
     20 O20        -8.4083   -0.0212   59.7226 O.2     1  ZINC001064463188   -0.5400
     21 C21       -10.3209   -1.3116   59.3924 C.2     1  ZINC001064463188   -0.2200
     22 C22       -10.7287   -1.5723   58.1537 C.2     1  ZINC001064463188    0.0000
     23 C23       -10.4764   -0.5756   57.0519 C.3     1  ZINC001064463188   -0.1300
     24 C24       -11.4430   -2.8645   57.8518 C.3     1  ZINC001064463188   -0.1200
     25 C25       -11.4266   -3.3592   56.4041 C.3     1  ZINC001064463188   -0.1900
     26 C26       -10.5863   -4.0719   57.4658 C.3     1  ZINC001064463188   -0.1600
     27 N27        -9.0323    0.4515   64.1902 N.ar    1  ZINC001064463188   -0.5900
     28 H28        -7.1182    0.1229   67.6245 H       1  ZINC001064463188    0.0600
     29 H29        -6.1828   -1.2329   66.9497 H       1  ZINC001064463188    0.1000
     30 H30        -6.0828    0.3781   66.1993 H       1  ZINC001064463188    0.0600
     31 H31        -8.7359    1.2888   67.3976 H       1  ZINC001064463188    0.1500
     32 H32       -10.1981    3.1244   66.5943 H       1  ZINC001064463188    0.1800
     33 H33       -12.1171    1.6693   63.3394 H       1  ZINC001064463188    0.0800
     34 H34       -11.7511    2.8758   62.0866 H       1  ZINC001064463188    0.0600
     35 H35       -12.0995   -0.1038   61.5522 H       1  ZINC001064463188    0.0800
     36 H36       -13.3880    1.0989   61.3566 H       1  ZINC001064463188    0.0800
     37 H37       -12.2314    2.7638   58.4323 H       1  ZINC001064463188    0.0800
     38 H38       -13.0160    3.0440   60.0182 H       1  ZINC001064463188    0.0900
     39 H39       -10.5667    4.1771   59.2083 H       1  ZINC001064463188    0.0800
     40 H40       -11.1098    4.0159   60.9057 H       1  ZINC001064463188    0.0800
     41 H41        -9.5030    3.4529   62.1095 H       1  ZINC001064463188    0.0700
     42 H42        -8.3192    2.1615   61.7821 H       1  ZINC001064463188    0.0900
     43 H43       -10.5017   -2.0258   60.1821 H       1  ZINC001064463188    0.1200
     44 H44        -9.5145   -0.7864   56.5845 H       1  ZINC001064463188    0.0800
     45 H45       -11.2673   -0.6511   56.3056 H       1  ZINC001064463188    0.0800
     46 H46       -10.4650    0.4316   57.4686 H       1  ZINC001064463188    0.0700
     47 H47       -12.3426   -3.0524   58.4381 H       1  ZINC001064463188    0.1400
     48 H48       -12.3155   -3.8727   56.0377 H       1  ZINC001064463188    0.1000
     49 H49       -10.8992   -2.7502   55.6701 H       1  ZINC001064463188    0.1000
     50 H50        -9.5060   -3.9316   57.4300 H       1  ZINC001064463188    0.0900
     51 H51       -10.9223   -5.0542   57.7976 H       1  ZINC001064463188    0.1000
@<TRIPOS>BOND
     1     1     2    1
     2     1    28    1
     3     1    29    1
     4     1    30    1
     5     2     3    1
     6     3    27   ar
     7     3     4   ar
     8     4     5   ar
     9     4    31    1
    10     5     6   ar
    11     5    32    1
    12     6     7   ar
    13     7     8    1
    14     7    27   ar
    15     8    17    1
    16     8     9    1
    17     9    10    1
    18     9    33    1
    19     9    34    1
    20    10    11    1
    21    10    35    1
    22    10    36    1
    23    11    12    1
    24    11    18    1
    25    11    13    1
    26    13    14    1
    27    13    37    1
    28    13    38    1
    29    14    15    1
    30    14    39    1
    31    14    40    1
    32    15    16    1
    33    15    17    1
    34    15    18    1
    35    17    41    1
    36    17    42    1
    37    18    19   am
    38    19    20    2
    39    19    21    1
    40    21    22    2
    41    21    43    1
    42    22    23    1
    43    22    24    1
    44    23    44    1
    45    23    45    1
    46    23    46    1
    47    24    26    1
    48    24    25    1
    49    24    47    1
    50    25    26    1
    51    25    48    1
    52    25    49    1
    53    26    50    1
    54    26    51    1
@<TRIPOS>SUBSTRUCTURE
     1 ZINC001064463188        1 TEMP              0 ****  ****    0 ROOT


##########                                Name:    ZINC000373864439
##########                DOCK_Rotatable_Bonds:                   7
##########                         Heavy_Atoms:                  23
##########                    Molecular_Weight:              344.45
##########                DOCK_Rotatable_Bonds:                   7
##########                       Formal_Charge:          -0.0300001
##########                     HBond_Acceptors:                   7
##########                        HBond_Donors:                   1
##########                         Heavy_Atoms:                  23
##########                          Grid_Score:          -26.973465
##########                     Grid_vdw_energy:          -24.068899
##########                      Grid_es_energy:           -2.904565
##########           Internal_energy_repulsive:           24.259071

@<TRIPOS>MOLECULE
ZINC000373864439
 48 49 1 0 0
SMALL
USER_CHARGES


@<TRIPOS>ATOM
      1 C1        -14.7591    1.3938   57.9750 C.3     1  ZINC000373864439   -0.1500
      2 C2        -15.9523    1.0438   58.8665 C.3     1  ZINC000373864439   -0.6300
      3 S3        -15.3689    0.6966   60.5487 S.o2    1  ZINC000373864439    2.6100
      4 O4        -14.5428    1.7533   61.0179 O.2     1  ZINC000373864439   -0.9500
      5 O5        -16.4264    0.1837   61.3473 O.2     1  ZINC000373864439   -0.9600
      6 N6        -14.3334   -0.5834   60.3710 N.am    1  ZINC000373864439   -1.1200
      7 C7        -14.8204   -1.8476   59.8137 C.3     1  ZINC000373864439    0.1100
      8 C8        -13.6315   -2.7576   59.4984 C.3     1  ZINC000373864439    0.0500
      9 N9        -12.5988   -1.9871   58.7928 N.3     1  ZINC000373864439   -0.5300
     10 C10       -12.8287   -2.0039   57.3425 C.3     1  ZINC000373864439    0.0400
     11 C11       -11.8243   -1.0764   56.6547 C.3     1  ZINC000373864439   -0.1300
     12 C12       -10.4022   -1.5481   56.9704 C.3     1  ZINC000373864439    0.1800
     13 F13       -10.2121   -2.8358   56.4576 F       1  ZINC000373864439   -0.2100
     14 C14        -9.4079   -0.6047   56.3440 C.ar    1  ZINC000373864439   -0.1500
     15 C15        -8.6029    0.1823   57.1441 C.ar    1  ZINC000373864439   -0.0700
     16 C16        -7.6905    1.0486   56.5699 C.ar    1  ZINC000373864439   -0.1600
     17 C17        -7.5815    1.1288   55.1941 C.ar    1  ZINC000373864439   -0.0700
     18 C18        -8.3841    0.3433   54.3893 C.ar    1  ZINC000373864439   -0.2100
     19 C19        -9.2963   -0.5303   54.9629 C.ar    1  ZINC000373864439    0.1400
     20 O20       -10.0869   -1.3040   54.1736 O.3     1  ZINC000373864439   -0.3100
     21 C21        -9.8072   -1.2996   52.7722 C.3     1  ZINC000373864439    0.0200
     22 C22       -10.2046   -1.5677   58.4887 C.3     1  ZINC000373864439   -0.1300
     23 C23       -11.2559   -2.4809   59.1232 C.3     1  ZINC000373864439    0.0600
     24 H24       -14.0638    0.5547   57.9525 H       1  ZINC000373864439    0.0700
     25 H25       -15.1097    1.6025   56.9643 H       1  ZINC000373864439    0.0800
     26 H26       -14.2539    2.2738   58.3732 H       1  ZINC000373864439    0.0700
     27 H27       -16.6476    1.8829   58.8890 H       1  ZINC000373864439    0.1300
     28 H28       -16.4576    0.1638   58.4683 H       1  ZINC000373864439    0.1300
     29 H29       -13.4044   -0.4960   60.6360 H       1  ZINC000373864439    0.4200
     30 H30       -15.4708   -2.3376   60.5383 H       1  ZINC000373864439    0.0700
     31 H31       -15.3793   -1.6501   58.8989 H       1  ZINC000373864439    0.0900
     32 H32       -13.2194   -3.1520   60.4272 H       1  ZINC000373864439    0.0900
     33 H33       -13.9628   -3.5831   58.8684 H       1  ZINC000373864439    0.0400
     34 H34       -12.7020   -3.0191   56.9664 H       1  ZINC000373864439    0.0400
     35 H35       -13.8420   -1.6623   57.1314 H       1  ZINC000373864439    0.0900
     36 H36       -11.9850   -1.1011   55.5769 H       1  ZINC000373864439    0.0800
     37 H37       -11.9596   -0.0585   57.0202 H       1  ZINC000373864439    0.1000
     38 H38        -8.6862    0.1216   58.2192 H       1  ZINC000373864439    0.1300
     39 H39        -7.0625    1.6637   57.1972 H       1  ZINC000373864439    0.1300
     40 H40        -6.8684    1.8063   54.7479 H       1  ZINC000373864439    0.1300
     41 H41        -8.2987    0.4065   53.3145 H       1  ZINC000373864439    0.1300
     42 H42       -10.5096   -1.9566   52.2594 H       1  ZINC000373864439    0.1000
     43 H43        -9.9089   -0.2858   52.3846 H       1  ZINC000373864439    0.0600
     44 H44        -8.7899   -1.6526   52.6036 H       1  ZINC000373864439    0.0600
     45 H45        -9.2081   -1.9434   58.7212 H       1  ZINC000373864439    0.0800
     46 H46       -10.3145   -0.5575   58.8829 H       1  ZINC000373864439    0.1000
     47 H47       -11.1270   -2.4859   60.2056 H       1  ZINC000373864439    0.0800
     48 H48       -11.1366   -3.4939   58.7389 H       1  ZINC000373864439    0.0400
@<TRIPOS>BOND
     1     1     2    1
     2     1    24    1
     3     1    25    1
     4     1    26    1
     5     2     3    1
     6     2    27    1
     7     2    28    1
     8     3     4    2
     9     3     5    2
    10     3     6   am
    11     6     7    1
    12     6    29    1
    13     7     8    1
    14     7    30    1
    15     7    31    1
    16     8     9    1
    17     8    32    1
    18     8    33    1
    19     9    23    1
    20     9    10    1
    21    10    11    1
    22    10    34    1
    23    10    35    1
    24    11    12    1
    25    11    36    1
    26    11    37    1
    27    12    13    1
    28    12    14    1
    29    12    22    1
    30    14    19   ar
    31    14    15   ar
    32    15    16   ar
    33    15    38    1
    34    16    17   ar
    35    16    39    1
    36    17    18   ar
    37    17    40    1
    38    18    19   ar
    39    18    41    1
    40    19    20    1
    41    20    21    1
    42    21    42    1
    43    21    43    1
    44    21    44    1
    45    22    23    1
    46    22    45    1
    47    22    46    1
    48    23    47    1
    49    23    48    1
@<TRIPOS>SUBSTRUCTURE
     1 ZINC000373864439        1 TEMP              0 ****  ****    0 ROOT


##########                                Name:    ZINC000534799364
##########                DOCK_Rotatable_Bonds:                   4
##########                         Heavy_Atoms:                  29
##########                    Molecular_Weight:             391.491
##########                DOCK_Rotatable_Bonds:                   4
##########                       Formal_Charge:           0.0199998
##########                     HBond_Acceptors:                   6
##########                        HBond_Donors:                   0
##########                         Heavy_Atoms:                  29
##########                          Grid_Score:          -26.972876
##########                     Grid_vdw_energy:          -26.847931
##########                      Grid_es_energy:           -0.124944
##########           Internal_energy_repulsive:           11.761284

@<TRIPOS>MOLECULE
ZINC000534799364
 55 59 1 0 0
SMALL
USER_CHARGES


@<TRIPOS>ATOM
      1 C1         -6.3529    1.2233   52.0077 C.3     1  ZINC000534799364   -0.1100
      2 C2         -7.3638    2.3397   51.9561 C.ar    1  ZINC000534799364   -0.0200
      3 C3         -7.1467    3.4577   51.1679 C.ar    1  ZINC000534799364   -0.1700
      4 C4         -8.0960    4.4627   51.1450 C.ar    1  ZINC000534799364    0.1000
      5 N5         -9.1993    4.3693   51.8609 N.ar    1  ZINC000534799364   -0.4800
      6 C6         -9.4455    3.3232   52.6242 C.ar    1  ZINC000534799364    0.0800
      7 C7         -8.5425    2.2702   52.6954 C.ar    1  ZINC000534799364    0.0300
      8 N8         -8.8071    1.1630   53.5051 N.3     1  ZINC000534799364   -0.5000
      9 C9        -10.1275    0.5930   53.2030 C.3     1  ZINC000534799364    0.0600
     10 C10       -10.3454   -0.6612   54.0525 C.3     1  ZINC000534799364    0.0600
     11 N11       -10.2396   -0.3103   55.4756 N.3     1  ZINC000534799364   -0.5300
     12 C12       -10.5178   -1.4747   56.3271 C.3     1  ZINC000534799364    0.1400
     13 C13       -10.8296   -1.0106   57.7265 C.2     1  ZINC000534799364    0.1100
     14 N14        -9.9728   -0.9126   58.7099 N.2     1  ZINC000534799364   -0.2800
     15 N15       -10.6549   -0.4461   59.8400 N.pl3   1  ZINC000534799364   -0.3100
     16 C16       -10.0930   -0.2059   61.1024 C.ar    1  ZINC000534799364    0.1500
     17 C17       -10.7865    0.5475   62.0399 C.ar    1  ZINC000534799364   -0.1000
     18 C18       -10.2316    0.7828   63.2824 C.ar    1  ZINC000534799364   -0.1300
     19 C19        -8.9843    0.2679   63.5935 C.ar    1  ZINC000534799364    0.1000
     20 F20        -8.4432    0.4989   64.8096 F       1  ZINC000534799364   -0.1300
     21 C21        -8.2910   -0.4839   62.6596 C.ar    1  ZINC000534799364   -0.1300
     22 C22        -8.8452   -0.7263   61.4180 C.ar    1  ZINC000534799364   -0.0800
     23 C23       -11.9537   -0.2675   59.4984 C.2     1  ZINC000534799364    0.0500
     24 C24       -12.0865   -0.6040   58.1961 C.2     1  ZINC000534799364   -0.2200
     25 C25       -13.5226   -0.4245   57.7529 C.3     1  ZINC000534799364   -0.0400
     26 C26       -14.3385   -0.3460   59.0617 C.3     1  ZINC000534799364   -0.1200
     27 C27       -13.2850    0.1759   60.0647 C.3     1  ZINC000534799364   -0.0500
     28 C28        -8.9192    0.2596   55.7778 C.3     1  ZINC000534799364    0.0600
     29 C29        -8.7013    1.5138   54.9283 C.3     1  ZINC000534799364    0.0600
     30 H30        -6.6301    0.4488   51.2926 H       1  ZINC000534799364    0.0800
     31 H31        -5.3669    1.6140   51.7562 H       1  ZINC000534799364    0.0600
     32 H32        -6.3306    0.7996   53.0117 H       1  ZINC000534799364    0.0800
     33 H33        -6.2459    3.5436   50.5783 H       1  ZINC000534799364    0.1400
     34 H34        -7.9313    5.3368   50.5324 H       1  ZINC000534799364    0.1600
     35 H35       -10.3604    3.2825   53.1967 H       1  ZINC000534799364    0.1500
     36 H36       -10.9011    1.3262   53.4319 H       1  ZINC000534799364    0.0500
     37 H37       -10.1768    0.3297   52.1464 H       1  ZINC000534799364    0.0800
     38 H38       -11.3359   -1.0693   53.8512 H       1  ZINC000534799364    0.0900
     39 H39        -9.5881   -1.4048   53.8040 H       1  ZINC000534799364    0.0500
     40 H40       -11.3716   -2.0216   55.9270 H       1  ZINC000534799364    0.1000
     41 H41        -9.6451   -2.1273   56.3466 H       1  ZINC000534799364    0.0500
     42 H42       -11.7591    0.9495   61.7974 H       1  ZINC000534799364    0.1400
     43 H43       -10.7706    1.3693   64.0118 H       1  ZINC000534799364    0.1500
     44 H44        -7.3182   -0.8844   62.9038 H       1  ZINC000534799364    0.1500
     45 H45        -8.3045   -1.3128   60.6901 H       1  ZINC000534799364    0.1400
     46 H46       -13.6306    0.4986   57.1833 H       1  ZINC000534799364    0.0800
     47 H47       -13.8444   -1.2782   57.1565 H       1  ZINC000534799364    0.0700
     48 H48       -15.1640    0.3590   58.9643 H       1  ZINC000534799364    0.0800
     49 H49       -14.7021   -1.3312   59.3534 H       1  ZINC000534799364    0.0800
     50 H50       -13.4435   -0.2696   61.0468 H       1  ZINC000534799364    0.0800
     51 H51       -13.3294    1.2631   60.1294 H       1  ZINC000534799364    0.0900
     52 H52        -8.8699    0.5229   56.8344 H       1  ZINC000534799364    0.0900
     53 H53        -8.1457   -0.4736   55.5489 H       1  ZINC000534799364    0.0500
     54 H54        -7.7108    1.9219   55.1296 H       1  ZINC000534799364    0.0800
     55 H55        -9.4586    2.2574   55.1767 H       1  ZINC000534799364    0.0500
@<TRIPOS>BOND
     1     1     2    1
     2     1    30    1
     3     1    31    1
     4     1    32    1
     5     2     7   ar
     6     2     3   ar
     7     3     4   ar
     8     3    33    1
     9     4     5   ar
    10     4    34    1
    11     5     6   ar
    12     6     7   ar
    13     6    35    1
    14     7     8    1
    15     8    29    1
    16     8     9    1
    17     9    10    1
    18     9    36    1
    19     9    37    1
    20    10    11    1
    21    10    38    1
    22    10    39    1
    23    11    12    1
    24    11    28    1
    25    12    13    1
    26    12    40    1
    27    12    41    1
    28    13    24    1
    29    13    14    2
    30    14    15    1
    31    15    16    1
    32    15    23    1
    33    16    22   ar
    34    16    17   ar
    35    17    18   ar
    36    17    42    1
    37    18    19   ar
    38    18    43    1
    39    19    20    1
    40    19    21   ar
    41    21    22   ar
    42    21    44    1
    43    22    45    1
    44    23    27    1
    45    23    24    2
    46    24    25    1
    47    25    26    1
    48    25    46    1
    49    25    47    1
    50    26    27    1
    51    26    48    1
    52    26    49    1
    53    27    50    1
    54    27    51    1
    55    28    29    1
    56    28    52    1
    57    28    53    1
    58    29    54    1
    59    29    55    1
@<TRIPOS>SUBSTRUCTURE
     1 ZINC000534799364        1 TEMP              0 ****  ****    0 ROOT


##########                                Name:    ZINC000581017854
##########                DOCK_Rotatable_Bonds:                   6
##########                         Heavy_Atoms:                  24
##########                    Molecular_Weight:             330.334
##########                DOCK_Rotatable_Bonds:                   6
##########                       Formal_Charge:           0.0099998
##########                     HBond_Acceptors:                   6
##########                        HBond_Donors:                   2
##########                         Heavy_Atoms:                  24
##########                          Grid_Score:          -26.951307
##########                     Grid_vdw_energy:          -26.092770
##########                      Grid_es_energy:           -0.858537
##########           Internal_energy_repulsive:           10.419461

@<TRIPOS>MOLECULE
ZINC000581017854
 40 42 1 0 0
SMALL
USER_CHARGES


@<TRIPOS>ATOM
      1 C1         -9.9080   -1.8630   60.0046 C.3     1  ZINC000581017854   -0.1600
      2 C2        -10.1921   -0.3596   59.9917 C.3     1  ZINC000581017854    0.1500
      3 H3        -11.1411   -0.1735   59.4888 H       1  ZINC000581017854    0.1100
      4 C4        -10.2667    0.1577   61.4296 C.3     1  ZINC000581017854    0.0500
      5 O5         -9.2072   -0.4162   62.1979 O.3     1  ZINC000581017854   -0.3100
      6 C6         -9.0865   -0.0037   63.4871 C.ar    1  ZINC000581017854    0.1600
      7 C7         -9.9835    0.9172   64.0085 C.ar    1  ZINC000581017854   -0.2200
      8 C8         -9.8598    1.3359   65.3195 C.ar    1  ZINC000581017854   -0.0500
      9 C9         -8.8429    0.8388   66.1125 C.ar    1  ZINC000581017854   -0.1900
     10 C10        -7.9451   -0.0804   65.5951 C.ar    1  ZINC000581017854    0.1400
     11 F11        -6.9517   -0.5652   66.3718 F       1  ZINC000581017854   -0.1300
     12 C12        -8.0696   -0.5071   64.2850 C.ar    1  ZINC000581017854   -0.1900
     13 N13        -9.1170    0.3343   59.2782 N.am    1  ZINC000581017854   -0.7300
     14 C14        -9.2543    0.6235   57.9690 C.2     1  ZINC000581017854    0.5900
     15 O15       -10.2703    0.3069   57.3793 O.2     1  ZINC000581017854   -0.5400
     16 C16        -8.1770    1.3209   57.2539 C.2     1  ZINC000581017854   -0.2200
     17 C17        -7.2441    2.1546   57.7959 C.2     1  ZINC000581017854    0.1100
     18 N18        -6.4147    2.6077   56.8246 N.pl3   1  ZINC000581017854   -0.5700
     19 C19        -6.7757    2.0840   55.6002 C.ar    1  ZINC000581017854    0.1100
     20 C20        -6.2635    2.2285   54.3154 C.ar    1  ZINC000581017854   -0.1600
     21 C21        -6.8527    1.5613   53.2607 C.ar    1  ZINC000581017854    0.1200
     22 F22        -6.3516    1.7041   52.0142 F       1  ZINC000581017854   -0.1400
     23 C23        -7.9561    0.7436   53.4696 C.ar    1  ZINC000581017854   -0.1700
     24 C24        -8.4764    0.5892   54.7360 C.ar    1  ZINC000581017854   -0.0300
     25 C25        -7.8875    1.2522   55.8094 C.ar    1  ZINC000581017854   -0.0700
     26 H26       -10.7078   -2.3793   60.5355 H       1  ZINC000581017854    0.0700
     27 H27        -9.8548   -2.2315   58.9802 H       1  ZINC000581017854    0.0700
     28 H28        -8.9590   -2.0491   60.5074 H       1  ZINC000581017854    0.0700
     29 H29       -10.1693    1.2434   61.4306 H       1  ZINC000581017854    0.0700
     30 H30       -11.2252   -0.1216   61.8669 H       1  ZINC000581017854    0.0800
     31 H31       -10.7783    1.3069   63.3898 H       1  ZINC000581017854    0.1400
     32 H32       -10.5585    2.0529   65.7249 H       1  ZINC000581017854    0.1400
     33 H33        -8.7479    1.1678   67.1368 H       1  ZINC000581017854    0.1400
     34 H34        -7.3702   -1.2241   63.8811 H       1  ZINC000581017854    0.1400
     35 H35        -8.3065    0.5856   59.7480 H       1  ZINC000581017854    0.4000
     36 H36        -7.1763    2.4147   58.8419 H       1  ZINC000581017854    0.1800
     37 H37        -5.6723    3.2151   56.9697 H       1  ZINC000581017854    0.4200
     38 H38        -5.4062    2.8622   54.1430 H       1  ZINC000581017854    0.1400
     39 H39        -8.4083    0.2272   52.6358 H       1  ZINC000581017854    0.1400
     40 H40        -9.3346   -0.0467   54.8959 H       1  ZINC000581017854    0.1500
@<TRIPOS>BOND
     1     1     2    1
     2     1    26    1
     3     1    27    1
     4     1    28    1
     5     2     3    1
     6     2     4    1
     7     2    13    1
     8     4     5    1
     9     4    29    1
    10     4    30    1
    11     5     6    1
    12     6    12   ar
    13     6     7   ar
    14     7     8   ar
    15     7    31    1
    16     8     9   ar
    17     8    32    1
    18     9    10   ar
    19     9    33    1
    20    10    11    1
    21    10    12   ar
    22    12    34    1
    23    13    14   am
    24    13    35    1
    25    14    15    2
    26    14    16    1
    27    16    25    1
    28    16    17    2
    29    17    18    1
    30    17    36    1
    31    18    19    1
    32    18    37    1
    33    19    25   ar
    34    19    20   ar
    35    20    21   ar
    36    20    38    1
    37    21    22    1
    38    21    23   ar
    39    23    24   ar
    40    23    39    1
    41    24    25   ar
    42    24    40    1
@<TRIPOS>SUBSTRUCTURE
     1 ZINC000581017854        1 TEMP              0 ****  ****    0 ROOT


##########                                Name:    ZINC001217683559
##########                DOCK_Rotatable_Bonds:                   3
##########                         Heavy_Atoms:                  25
##########                    Molecular_Weight:             397.234
##########                DOCK_Rotatable_Bonds:                   3
##########                       Formal_Charge:          0.00999987
##########                     HBond_Acceptors:                   7
##########                        HBond_Donors:                   0
##########                         Heavy_Atoms:                  25
##########                          Grid_Score:          -26.935619
##########                     Grid_vdw_energy:          -27.745064
##########                      Grid_es_energy:            0.809444
##########           Internal_energy_repulsive:           31.837824

@<TRIPOS>MOLECULE
ZINC001217683559
 38 42 1 0 0
SMALL
USER_CHARGES


@<TRIPOS>ATOM
      1 Br1        -9.3751    3.2078   62.9679 Br      1  ZINC001217683559    0.0100
      2 C2         -9.2053    1.7186   64.1209 C.ar    1  ZINC001217683559   -0.1200
      3 C3         -9.3634    1.8677   65.4896 C.ar    1  ZINC001217683559   -0.0500
      4 C4         -9.2300    0.7479   66.2968 C.ar    1  ZINC001217683559   -0.1500
      5 C5         -8.9452   -0.4757   65.7178 C.ar    1  ZINC001217683559    0.1200
      6 N6         -8.7995   -0.5895   64.4138 N.ar    1  ZINC001217683559   -0.4400
      7 C7         -8.9251    0.4545   63.6060 C.ar    1  ZINC001217683559    0.2200
      8 C8         -8.7520    0.2778   62.1419 C.2     1  ZINC001217683559    0.2100
      9 N9         -8.5180   -0.8490   61.5200 N.2     1  ZINC001217683559   -0.3300
     10 O10        -8.4279   -0.6606   60.3254 O.3     1  ZINC001217683559    0.1000
     11 C11        -8.5999    0.6427   60.0539 C.2     1  ZINC001217683559    0.2300
     12 C12        -8.5639    1.2762   58.7197 C.2     1  ZINC001217683559   -0.0600
     13 C13        -8.3514    0.5139   57.6060 C.2     1  ZINC001217683559    0.1800
     14 N14        -8.3169    1.0874   56.3776 N.pl3   1  ZINC001217683559   -0.2900
     15 N15        -8.1225    0.5744   55.0870 N.2     1  ZINC001217683559   -0.3300
     16 C16        -8.1871    1.5876   54.2558 C.2     1  ZINC001217683559    0.2800
     17 C17        -8.0334    1.4940   52.7596 C.3     1  ZINC001217683559   -0.0300
     18 C18        -7.6951    2.8365   52.0900 C.3     1  ZINC001217683559   -0.1200
     19 C19        -6.7311    2.0522   51.1842 C.3     1  ZINC001217683559   -0.1400
     20 C20        -6.6438    1.0104   52.3122 C.3     1  ZINC001217683559   -0.1200
     21 N21        -8.4091    2.7058   54.9324 N.2     1  ZINC001217683559   -0.5300
     22 C22        -8.4933    2.4350   56.2295 C.2     1  ZINC001217683559    0.2900
     23 C23        -8.7144    3.2437   57.3613 C.2     1  ZINC001217683559   -0.1000
     24 C24        -8.7552    2.6723   58.5931 C.2     1  ZINC001217683559   -0.0200
     25 N25        -8.8128    1.2490   61.2073 N.2     1  ZINC001217683559   -0.4300
     26 H26        -9.5852    2.8341   65.9178 H       1  ZINC001217683559    0.1600
     27 H27        -9.3469    0.8304   67.3673 H       1  ZINC001217683559    0.1500
     28 H28        -8.8407   -1.3497   66.3437 H       1  ZINC001217683559    0.1800
     29 H29        -8.2097   -0.5522   57.7046 H       1  ZINC001217683559    0.1900
     30 H30        -8.8556    0.9613   52.2821 H       1  ZINC001217683559    0.1200
     31 H31        -8.5339    3.2806   51.5540 H       1  ZINC001217683559    0.0700
     32 H32        -7.1945    3.5415   52.7536 H       1  ZINC001217683559    0.1000
     33 H33        -7.1975    1.6730   50.2749 H       1  ZINC001217683559    0.0800
     34 H34        -5.7911    2.5703   50.9947 H       1  ZINC001217683559    0.0800
     35 H35        -5.8557    1.2163   53.0366 H       1  ZINC001217683559    0.0900
     36 H36        -6.6337   -0.0195   51.9556 H       1  ZINC001217683559    0.0700
     37 H37        -8.8542    4.3089   57.2504 H       1  ZINC001217683559    0.1700
     38 H38        -8.9239    3.2802   59.4696 H       1  ZINC001217683559    0.1700
@<TRIPOS>BOND
     1     1     2    1
     2     2     7   ar
     3     2     3   ar
     4     3     4   ar
     5     3    26    1
     6     4     5   ar
     7     4    27    1
     8     5     6   ar
     9     5    28    1
    10     6     7   ar
    11     7     8    1
    12     8    25    1
    13     8     9    2
    14     9    10    1
    15    10    11    1
    16    11    12    1
    17    11    25    2
    18    12    24    1
    19    12    13    2
    20    13    14    1
    21    13    29    1
    22    14    22    1
    23    14    15    1
    24    15    16    2
    25    16    17    1
    26    16    21    1
    27    17    20    1
    28    17    18    1
    29    17    30    1
    30    18    19    1
    31    18    31    1
    32    18    32    1
    33    19    20    1
    34    19    33    1
    35    19    34    1
    36    20    35    1
    37    20    36    1
    38    21    22    2
    39    22    23    1
    40    23    24    2
    41    23    37    1
    42    24    38    1
@<TRIPOS>SUBSTRUCTURE
     1 ZINC001217683559        1 TEMP              0 ****  ****    0 ROOT


##########                                Name:    ZINC000893400114
##########                DOCK_Rotatable_Bonds:                   6
##########                         Heavy_Atoms:                  27
##########                    Molecular_Weight:             381.472
##########                DOCK_Rotatable_Bonds:                   6
##########                       Formal_Charge:           0.0300001
##########                     HBond_Acceptors:                   8
##########                        HBond_Donors:                   1
##########                         Heavy_Atoms:                  27
##########                          Grid_Score:          -26.928251
##########                     Grid_vdw_energy:          -25.839165
##########                      Grid_es_energy:           -1.089086
##########           Internal_energy_repulsive:          134.850418

@<TRIPOS>MOLECULE
ZINC000893400114
 58 61 1 0 0
SMALL
USER_CHARGES


@<TRIPOS>ATOM
      1 O1         -9.1672    0.7983   54.6325 O.2     1  ZINC000893400114   -0.5600
      2 C2         -8.7097    0.5856   53.5262 C.2     1  ZINC000893400114    0.7100
      3 N3         -9.3257   -0.2803   52.6974 N.am    1  ZINC000893400114   -0.7300
      4 C4        -10.5433   -0.9697   53.1314 C.3     1  ZINC000893400114    0.1400
      5 H5        -10.7045   -1.8685   52.5361 H       1  ZINC000893400114    0.1200
      6 C6        -11.7646   -0.0269   53.0293 C.3     1  ZINC000893400114   -0.1400
      7 C7        -11.8331    0.5556   54.4586 C.3     1  ZINC000893400114    0.1000
      8 N8        -11.1967   -0.4470   55.3209 N.am    1  ZINC000893400114   -0.6200
      9 C9        -11.3440   -0.4976   56.7776 C.3     1  ZINC000893400114    0.1600
     10 C10       -10.4383   -1.5940   57.3465 C.3     1  ZINC000893400114   -0.1700
     11 C11       -10.5393   -1.5870   58.8741 C.3     1  ZINC000893400114    0.0700
     12 O12       -10.1766   -0.2961   59.3681 O.3     1  ZINC000893400114   -0.3800
     13 C13       -11.0183    0.7628   58.9071 C.3     1  ZINC000893400114    0.0700
     14 C14       -10.9365    0.8501   57.3809 C.3     1  ZINC000893400114   -0.1700
     15 C15       -10.4601   -1.3163   54.6016 C.2     1  ZINC000893400114    0.5100
     16 O16        -9.8247   -2.2390   55.0661 O.2     1  ZINC000893400114   -0.4900
     17 N17        -7.5895    1.2199   53.1269 N.am    1  ZINC000893400114   -0.6300
     18 C18        -7.0204    0.9831   51.7907 C.3     1  ZINC000893400114    0.0800
     19 C19        -6.7744    2.3406   51.1225 C.3     1  ZINC000893400114    0.0500
     20 O20        -6.0074    3.1661   52.0020 O.3     1  ZINC000893400114   -0.3800
     21 C21        -6.6597    3.4696   53.2375 C.3     1  ZINC000893400114    0.0600
     22 C22        -6.9029    2.1741   54.0119 C.3     1  ZINC000893400114    0.1400
     23 H23        -5.9495    1.7516   54.3291 H       1  ZINC000893400114    0.0800
     24 C24        -7.7722    2.4620   55.2376 C.3     1  ZINC000893400114   -0.1200
     25 C25        -7.1501    3.6008   56.0481 C.3     1  ZINC000893400114    0.0700
     26 H26        -7.0407    4.4848   55.4199 H       1  ZINC000893400114    0.0800
     27 C27        -5.7697    3.1671   56.5867 C.3     1  ZINC000893400114   -0.1500
     28 C28        -5.7617    3.7875   58.0104 C.3     1  ZINC000893400114   -0.1600
     29 C29        -7.2576    3.6618   58.3945 C.3     1  ZINC000893400114    0.0500
     30 O30        -7.9803    3.9051   57.1750 O.3     1  ZINC000893400114   -0.3800
     31 H31        -8.9629   -0.4470   51.8133 H       1  ZINC000893400114    0.4000
     32 H32       -11.5898    0.7599   52.2955 H       1  ZINC000893400114    0.1000
     33 H33       -12.6700   -0.5855   52.7920 H       1  ZINC000893400114    0.1000
     34 H34       -11.2867    1.4975   54.5086 H       1  ZINC000893400114    0.0700
     35 H35       -12.8711    0.7047   54.7558 H       1  ZINC000893400114    0.0800
     36 H36       -12.3821   -0.7119   57.0319 H       1  ZINC000893400114    0.0900
     37 H37       -10.7570   -2.5641   56.9649 H       1  ZINC000893400114    0.0800
     38 H38        -9.4069   -1.4054   57.0488 H       1  ZINC000893400114    0.0900
     39 H39       -11.5626   -1.8157   59.1717 H       1  ZINC000893400114    0.0500
     40 H40        -9.8643   -2.3369   59.2865 H       1  ZINC000893400114    0.1000
     41 H41       -12.0478    0.5648   59.2052 H       1  ZINC000893400114    0.0500
     42 H42       -10.6883    1.7056   59.3434 H       1  ZINC000893400114    0.1000
     43 H43        -9.9150    1.0882   57.0839 H       1  ZINC000893400114    0.0900
     44 H44       -11.6113    1.6280   57.0239 H       1  ZINC000893400114    0.0700
     45 H45        -6.0779    0.4434   51.8835 H       1  ZINC000893400114    0.0800
     46 H46        -7.7202    0.4004   51.1917 H       1  ZINC000893400114    0.0800
     47 H47        -6.2274    2.1941   50.1911 H       1  ZINC000893400114    0.1100
     48 H48        -7.7299    2.8215   50.9126 H       1  ZINC000893400114    0.0500
     49 H49        -6.0301    4.1354   53.8277 H       1  ZINC000893400114    0.1300
     50 H50        -7.6147    3.9546   53.0353 H       1  ZINC000893400114    0.0500
     51 H51        -8.7723    2.7505   54.9141 H       1  ZINC000893400114    0.0800
     52 H52        -7.8348    1.5672   55.8570 H       1  ZINC000893400114    0.1100
     53 H53        -5.6967    2.0807   56.6365 H       1  ZINC000893400114    0.0800
     54 H54        -4.9674    3.5835   55.9776 H       1  ZINC000893400114    0.0800
     55 H55        -5.1325    3.2095   58.6872 H       1  ZINC000893400114    0.0800
     56 H56        -5.4498    4.8315   57.9823 H       1  ZINC000893400114    0.0800
     57 H57        -7.4696    2.6597   58.7672 H       1  ZINC000893400114    0.0600
     58 H58        -7.5198    4.4084   59.1441 H       1  ZINC000893400114    0.0800
@<TRIPOS>BOND
     1     1     2    2
     2     2     3   am
     3     2    17   am
     4     3     4    1
     5     3    31    1
     6     4     5    1
     7     4    15    1
     8     4     6    1
     9     6     7    1
    10     6    32    1
    11     6    33    1
    12     7     8    1
    13     7    34    1
    14     7    35    1
    15     8     9    1
    16     8    15   am
    17     9    14    1
    18     9    10    1
    19     9    36    1
    20    10    11    1
    21    10    37    1
    22    10    38    1
    23    11    12    1
    24    11    39    1
    25    11    40    1
    26    12    13    1
    27    13    14    1
    28    13    41    1
    29    13    42    1
    30    14    43    1
    31    14    44    1
    32    15    16    2
    33    17    22    1
    34    17    18    1
    35    18    19    1
    36    18    45    1
    37    18    46    1
    38    19    20    1
    39    19    47    1
    40    19    48    1
    41    20    21    1
    42    21    22    1
    43    21    49    1
    44    21    50    1
    45    22    23    1
    46    22    24    1
    47    24    25    1
    48    24    51    1
    49    24    52    1
    50    25    26    1
    51    25    30    1
    52    25    27    1
    53    27    28    1
    54    27    53    1
    55    27    54    1
    56    28    29    1
    57    28    55    1
    58    28    56    1
    59    29    30    1
    60    29    57    1
    61    29    58    1
@<TRIPOS>SUBSTRUCTURE
     1 ZINC000893400114        1 TEMP              0 ****  ****    0 ROOT


##########                                Name:    ZINC000151850193
##########                DOCK_Rotatable_Bonds:                  11
##########                         Heavy_Atoms:                  23
##########                    Molecular_Weight:             328.452
##########                DOCK_Rotatable_Bonds:                  11
##########                       Formal_Charge:            0.039999
##########                     HBond_Acceptors:                   6
##########                        HBond_Donors:                   2
##########                         Heavy_Atoms:                  23
##########                          Grid_Score:          -26.922047
##########                     Grid_vdw_energy:          -26.758942
##########                      Grid_es_energy:           -0.163105
##########           Internal_energy_repulsive:           52.741928

@<TRIPOS>MOLECULE
ZINC000151850193
 55 55 1 0 0
SMALL
USER_CHARGES


@<TRIPOS>ATOM
      1 C1         -8.9868   -0.6323   59.4642 C.3     1  ZINC000151850193   -0.1500
      2 C2        -10.1260   -1.6519   59.5242 C.3     1  ZINC000151850193   -0.1000
      3 C3        -11.0724   -1.4294   58.3428 C.3     1  ZINC000151850193   -0.0800
      4 C4        -11.7410   -0.0534   58.3682 C.3     1  ZINC000151850193   -0.1000
      5 C5        -12.5749    0.0849   59.6436 C.3     1  ZINC000151850193   -0.1500
      6 C6        -10.4543   -1.7909   56.9819 C.3     1  ZINC000151850193    0.1400
      7 H7         -9.3663   -1.7280   56.9659 H       1  ZINC000151850193    0.1000
      8 N8        -11.0807   -1.1016   55.8512 N.am    1  ZINC000151850193   -0.7000
      9 C9        -10.5786   -1.2503   54.6092 C.2     1  ZINC000151850193    0.5200
     10 O10        -9.6073   -1.9536   54.4281 O.2     1  ZINC000151850193   -0.5300
     11 C11       -11.2240   -0.5425   53.4458 C.3     1  ZINC000151850193   -0.1500
     12 C12       -10.7007    0.8930   53.3682 C.3     1  ZINC000151850193    0.1500
     13 N13        -9.2370    0.8766   53.3088 N.am    1  ZINC000151850193   -0.7100
     14 C14        -8.5695    1.9498   52.8404 C.2     1  ZINC000151850193    0.6500
     15 O15        -9.1818    2.9303   52.4661 O.2     1  ZINC000151850193   -0.5600
     16 O16        -7.2242    1.9353   52.7874 O.3     1  ZINC000151850193   -0.3700
     17 C17        -6.5740    3.1071   52.2285 C.3     1  ZINC000151850193    0.1400
     18 C18        -7.0585    3.3237   50.7935 C.3     1  ZINC000151850193   -0.1800
     19 C19        -6.9200    4.3344   53.0742 C.3     1  ZINC000151850193   -0.1400
     20 C20        -5.0583    2.8983   52.2290 C.3     1  ZINC000151850193   -0.1800
     21 C21       -10.9856   -3.2163   57.2078 C.3     1  ZINC000151850193   -0.1700
     22 C22       -12.0568   -2.5886   58.1152 C.3     1  ZINC000151850193    0.0700
     23 H23       -12.2625   -3.1697   59.0143 H       1  ZINC000151850193    0.0800
     24 O24       -13.2442   -2.2053   57.4187 O.3     1  ZINC000151850193   -0.3700
     25 C25       -14.3428   -3.0997   57.6065 C.3     1  ZINC000151850193    0.0300
     26 H26        -8.4179   -0.7768   58.5456 H       1  ZINC000151850193    0.0600
     27 H27        -9.4004    0.3760   59.4805 H       1  ZINC000151850193    0.0600
     28 H28        -8.3305   -0.7698   60.3235 H       1  ZINC000151850193    0.0600
     29 H29        -9.7143   -2.6600   59.4752 H       1  ZINC000151850193    0.0700
     30 H30       -10.6751   -1.5286   60.4577 H       1  ZINC000151850193    0.0700
     31 H31       -10.9761    0.7227   58.3482 H       1  ZINC000151850193    0.0700
     32 H32       -12.3884    0.0519   57.4976 H       1  ZINC000151850193    0.0700
     33 H33       -13.3849   -0.6444   59.6290 H       1  ZINC000151850193    0.0500
     34 H34       -11.9416   -0.0929   60.5128 H       1  ZINC000151850193    0.0500
     35 H35       -12.9922    1.0903   59.6975 H       1  ZINC000151850193    0.0500
     36 H36       -11.8569   -0.5382   55.9963 H       1  ZINC000151850193    0.4100
     37 H37       -10.9824   -1.0677   52.5217 H       1  ZINC000151850193    0.1000
     38 H38       -12.3052   -0.5282   53.5835 H       1  ZINC000151850193    0.1000
     39 H39       -11.0952    1.3758   52.4741 H       1  ZINC000151850193    0.0800
     40 H40       -11.0222    1.4453   54.2512 H       1  ZINC000151850193    0.0800
     41 H41        -8.7482    0.0934   53.6065 H       1  ZINC000151850193    0.4100
     42 H42        -8.1383    3.4724   50.7932 H       1  ZINC000151850193    0.0600
     43 H43        -6.5704    4.2033   50.3740 H       1  ZINC000151850193    0.0700
     44 H44        -6.8120    2.4493   50.1910 H       1  ZINC000151850193    0.0900
     45 H45        -6.5749    4.1802   54.0965 H       1  ZINC000151850193    0.0700
     46 H46        -6.4319    5.2141   52.6547 H       1  ZINC000151850193    0.0800
     47 H47        -7.9998    4.4832   53.0739 H       1  ZINC000151850193    0.0700
     48 H48        -4.8118    2.0241   51.6266 H       1  ZINC000151850193    0.0900
     49 H49        -4.5702    3.7780   51.8095 H       1  ZINC000151850193    0.0700
     50 H50        -4.7131    2.7441   53.2514 H       1  ZINC000151850193    0.0600
     51 H51       -11.3919   -3.6785   56.3081 H       1  ZINC000151850193    0.0800
     52 H52       -10.2877   -3.8633   57.7392 H       1  ZINC000151850193    0.1000
     53 H53       -14.0677   -4.0927   57.2510 H       1  ZINC000151850193    0.0400
     54 H54       -14.5935   -3.1498   58.6662 H       1  ZINC000151850193    0.0400
     55 H55       -15.2050   -2.7390   57.0458 H       1  ZINC000151850193    0.0900
@<TRIPOS>BOND
     1     1     2    1
     2     1    26    1
     3     1    27    1
     4     1    28    1
     5     2     3    1
     6     2    29    1
     7     2    30    1
     8     3    22    1
     9     3     4    1
    10     3     6    1
    11     4     5    1
    12     4    31    1
    13     4    32    1
    14     5    33    1
    15     5    34    1
    16     5    35    1
    17     6     7    1
    18     6     8    1
    19     6    21    1
    20     8     9   am
    21     8    36    1
    22     9    10    2
    23     9    11    1
    24    11    12    1
    25    11    37    1
    26    11    38    1
    27    12    13    1
    28    12    39    1
    29    12    40    1
    30    13    14   am
    31    13    41    1
    32    14    15    2
    33    14    16    1
    34    16    17    1
    35    17    18    1
    36    17    19    1
    37    17    20    1
    38    18    42    1
    39    18    43    1
    40    18    44    1
    41    19    45    1
    42    19    46    1
    43    19    47    1
    44    20    48    1
    45    20    49    1
    46    20    50    1
    47    21    22    1
    48    21    51    1
    49    21    52    1
    50    22    23    1
    51    22    24    1
    52    24    25    1
    53    25    53    1
    54    25    54    1
    55    25    55    1
@<TRIPOS>SUBSTRUCTURE
     1 ZINC000151850193        1 TEMP              0 ****  ****    0 ROOT


##########                                Name:    ZINC000558052810
##########                DOCK_Rotatable_Bonds:                   9
##########                         Heavy_Atoms:                  30
##########                    Molecular_Weight:             424.524
##########                DOCK_Rotatable_Bonds:                   9
##########                       Formal_Charge:          -0.0200002
##########                     HBond_Acceptors:                   8
##########                        HBond_Donors:                   1
##########                         Heavy_Atoms:                  30
##########                          Grid_Score:          -26.915930
##########                     Grid_vdw_energy:          -25.534025
##########                      Grid_es_energy:           -1.381905
##########           Internal_energy_repulsive:           15.981901

@<TRIPOS>MOLECULE
ZINC000558052810
 54 56 1 0 0
SMALL
USER_CHARGES


@<TRIPOS>ATOM
      1 C1         -5.0716    2.3950   51.9023 C.3     1  ZINC000558052810   -0.1700
      2 C2         -6.4892    2.3917   51.3267 C.3     1  ZINC000558052810    0.1100
      3 N3         -7.4286    1.9157   52.3451 N.am    1  ZINC000558052810   -0.6100
      4 C4         -7.0209    0.8693   53.2859 C.3     1  ZINC000558052810    0.0700
      5 C5         -8.6679    2.4406   52.4166 C.2     1  ZINC000558052810    0.5600
      6 O6         -9.0061    3.3090   51.6362 O.2     1  ZINC000558052810   -0.5300
      7 C7         -9.6160    1.9603   53.4445 C.ar    1  ZINC000558052810   -0.1100
      8 C8        -10.6890    1.1449   53.0811 C.ar    1  ZINC000558052810   -0.1100
      9 C9        -11.5727    0.6979   54.0425 C.ar    1  ZINC000558052810   -0.1000
     10 C10       -11.3998    1.0554   55.3664 C.ar    1  ZINC000558052810   -0.1300
     11 C11       -10.3348    1.8673   55.7385 C.ar    1  ZINC000558052810    0.1400
     12 N12       -10.1645    2.2267   57.0797 N.am    1  ZINC000558052810   -0.6600
     13 C13        -9.2469    1.5923   57.8360 C.2     1  ZINC000558052810    0.5600
     14 O14        -8.5668    0.7075   57.3524 O.2     1  ZINC000558052810   -0.4800
     15 C15        -9.0675    1.9708   59.2488 C.ar    1  ZINC000558052810   -0.1900
     16 C16        -8.5975    3.2437   59.5915 C.ar    1  ZINC000558052810   -0.0200
     17 C17        -8.4464    3.5498   60.9324 C.ar    1  ZINC000558052810   -0.1900
     18 C18        -8.7604    2.6001   61.8882 C.ar    1  ZINC000558052810    0.1500
     19 N19        -9.2017    1.4057   61.5461 N.ar    1  ZINC000558052810   -0.4900
     20 C20        -9.3710    1.0616   60.2780 C.ar    1  ZINC000558052810    0.1600
     21 S21        -9.9636   -0.5490   59.8783 S.3     1  ZINC000558052810    0.0600
     22 C22       -11.5491   -0.1206   59.1175 C.3     1  ZINC000558052810   -0.0700
     23 C23       -12.6237   -1.0350   59.6467 C.2     1  ZINC000558052810   -0.2000
     24 C24       -12.8246   -2.3423   59.3548 C.2     1  ZINC000558052810   -0.0100
     25 C25       -12.0065   -3.1938   58.4185 C.3     1  ZINC000558052810   -0.0800
     26 O26       -13.8948   -2.7293   60.0632 O.3     1  ZINC000558052810    0.1000
     27 N27       -14.3407   -1.8217   60.7263 N.2     1  ZINC000558052810   -0.3600
     28 C28       -13.6517   -0.7287   60.5677 C.2     1  ZINC000558052810    0.0300
     29 C29       -13.9054    0.6022   61.2275 C.3     1  ZINC000558052810   -0.0800
     30 C30        -9.4379    2.3160   54.7815 C.ar    1  ZINC000558052810   -0.0700
     31 H31        -5.0328    3.0548   52.7690 H       1  ZINC000558052810    0.0600
     32 H32        -4.7992    1.3834   52.2033 H       1  ZINC000558052810    0.0600
     33 H33        -4.3727    2.7492   51.1445 H       1  ZINC000558052810    0.0700
     34 H34        -6.7614    3.4033   51.0257 H       1  ZINC000558052810    0.0800
     35 H35        -6.5278    1.7319   50.4599 H       1  ZINC000558052810    0.0800
     36 H36        -6.5026    1.3224   54.1310 H       1  ZINC000558052810    0.0600
     37 H37        -7.9031    0.3381   53.6431 H       1  ZINC000558052810    0.0800
     38 H38        -6.3537    0.1690   52.7836 H       1  ZINC000558052810    0.0700
     39 H39       -10.8280    0.8640   52.0476 H       1  ZINC000558052810    0.1400
     40 H40       -12.4024    0.0671   53.7593 H       1  ZINC000558052810    0.1400
     41 H41       -12.0948    0.7028   56.1141 H       1  ZINC000558052810    0.1300
     42 H42       -10.7069    2.9323   57.4653 H       1  ZINC000558052810    0.4100
     43 H43        -8.3582    3.9691   58.8279 H       1  ZINC000558052810    0.1400
     44 H44        -8.0855    4.5231   61.2307 H       1  ZINC000558052810    0.1500
     45 H45        -8.6416    2.8415   62.9342 H       1  ZINC000558052810    0.1700
     46 H46       -11.8002    0.9124   59.3581 H       1  ZINC000558052810    0.1000
     47 H47       -11.4756   -0.2342   58.0359 H       1  ZINC000558052810    0.1000
     48 H48       -11.1960   -3.6674   58.9725 H       1  ZINC000558052810    0.0900
     49 H49       -12.6418   -3.9614   57.9767 H       1  ZINC000558052810    0.0900
     50 H50       -11.5899   -2.5683   57.6289 H       1  ZINC000558052810    0.0900
     51 H51       -13.3571    0.6518   62.1683 H       1  ZINC000558052810    0.0800
     52 H52       -13.5708    1.4038   60.5692 H       1  ZINC000558052810    0.0800
     53 H53       -14.9721    0.7136   61.4225 H       1  ZINC000558052810    0.0800
     54 H54        -8.6095    2.9467   55.0686 H       1  ZINC000558052810    0.1500
@<TRIPOS>BOND
     1     1     2    1
     2     1    31    1
     3     1    32    1
     4     1    33    1
     5     2     3    1
     6     2    34    1
     7     2    35    1
     8     3     4    1
     9     3     5   am
    10     4    36    1
    11     4    37    1
    12     4    38    1
    13     5     6    2
    14     5     7    1
    15     7    30   ar
    16     7     8   ar
    17     8     9   ar
    18     8    39    1
    19     9    10   ar
    20     9    40    1
    21    10    11   ar
    22    10    41    1
    23    11    12    1
    24    11    30   ar
    25    12    13   am
    26    12    42    1
    27    13    14    2
    28    13    15    1
    29    15    20   ar
    30    15    16   ar
    31    16    17   ar
    32    16    43    1
    33    17    18   ar
    34    17    44    1
    35    18    19   ar
    36    18    45    1
    37    19    20   ar
    38    20    21    1
    39    21    22    1
    40    22    23    1
    41    22    46    1
    42    22    47    1
    43    23    28    1
    44    23    24    2
    45    24    25    1
    46    24    26    1
    47    25    48    1
    48    25    49    1
    49    25    50    1
    50    26    27    1
    51    27    28    2
    52    28    29    1
    53    29    51    1
    54    29    52    1
    55    29    53    1
    56    30    54    1
@<TRIPOS>SUBSTRUCTURE
     1 ZINC000558052810        1 TEMP              0 ****  ****    0 ROOT


##########                                Name:    ZINC000863246516
##########                DOCK_Rotatable_Bonds:                   5
##########                         Heavy_Atoms:                  25
##########                    Molecular_Weight:             356.489
##########                DOCK_Rotatable_Bonds:                   5
##########                       Formal_Charge:         -0.00999938
##########                     HBond_Acceptors:                   5
##########                        HBond_Donors:                   0
##########                         Heavy_Atoms:                  25
##########                          Grid_Score:          -26.914053
##########                     Grid_vdw_energy:          -24.910643
##########                      Grid_es_energy:           -2.003411
##########           Internal_energy_repulsive:           11.293991

@<TRIPOS>MOLECULE
ZINC000863246516
 49 52 1 0 0
SMALL
USER_CHARGES


@<TRIPOS>ATOM
      1 C1         -9.7307    2.3609   64.1326 C.3     1  ZINC000863246516   -0.0600
      2 C2        -10.5567    1.5979   63.1291 C.2     1  ZINC000863246516   -0.2000
      3 C3        -10.1174    0.7894   62.1748 C.2     1  ZINC000863246516    0.0900
      4 C4         -8.6469    0.5271   61.9755 C.3     1  ZINC000863246516   -0.1000
      5 N5        -11.0616    0.2066   61.3830 N.am    1  ZINC000863246516   -0.5300
      6 C6        -10.6902   -0.7048   60.2978 C.3     1  ZINC000863246516    0.1200
      7 C7        -10.6320    0.0691   58.9793 C.3     1  ZINC000863246516   -0.1500
      8 C8        -10.7073   -0.8977   57.8257 C.2     1  ZINC000863246516    0.5400
      9 O9        -10.9873   -2.0606   58.0263 O.2     1  ZINC000863246516   -0.5300
     10 N10       -10.4635   -0.4700   56.5710 N.am    1  ZINC000863246516   -0.6100
     11 C11       -10.5042   -1.3068   55.3664 C.3     1  ZINC000863246516    0.1100
     12 C12       -10.6244   -0.3494   54.1655 C.3     1  ZINC000863246516   -0.1300
     13 H13       -11.6224   -0.2614   53.7363 H       1  ZINC000863246516    0.1000
     14 C14        -9.4608   -0.4826   53.1691 C.3     1  ZINC000863246516   -0.1200
     15 C15        -8.6191    0.3485   54.1507 C.3     1  ZINC000863246516   -0.0600
     16 H16        -8.0958   -0.2530   54.8941 H       1  ZINC000863246516    0.1000
     17 C17        -7.7216    1.3529   53.4747 C.ar    1  ZINC000863246516   -0.0700
     18 C18        -6.8061    0.9342   52.5274 C.ar    1  ZINC000863246516   -0.1200
     19 C19        -5.9829    1.8555   51.9074 C.ar    1  ZINC000863246516   -0.1200
     20 C20        -6.0755    3.1955   52.2342 C.ar    1  ZINC000863246516   -0.1200
     21 C21        -6.9917    3.6142   53.1808 C.ar    1  ZINC000863246516   -0.1200
     22 C22        -7.8179    2.6935   53.7978 C.ar    1  ZINC000863246516   -0.1200
     23 C23        -9.9549    0.9535   54.6693 C.3     1  ZINC000863246516   -0.1100
     24 H24       -10.2716    1.8823   54.1948 H       1  ZINC000863246516    0.1200
     25 C25       -10.1222    0.9059   56.1953 C.3     1  ZINC000863246516    0.1200
     26 C26       -12.3458    0.5020   61.6391 C.2     1  ZINC000863246516    0.4800
     27 O27       -13.3268    0.0860   61.0485 O.2     1  ZINC000863246516   -0.4700
     28 S28       -12.3224    1.5845   62.9783 S.3     1  ZINC000863246516    0.0100
     29 H29       -10.3898    2.9323   64.7863 H       1  ZINC000863246516    0.0700
     30 H30        -9.1454    1.6608   64.7288 H       1  ZINC000863246516    0.0800
     31 H31        -9.0597    3.0414   63.6085 H       1  ZINC000863246516    0.0800
     32 H32        -8.0743    1.0903   62.7125 H       1  ZINC000863246516    0.0900
     33 H33        -8.4479   -0.5376   62.0972 H       1  ZINC000863246516    0.0800
     34 H34        -8.3548    0.8391   60.9728 H       1  ZINC000863246516    0.0800
     35 H35        -9.7130   -1.1400   60.5072 H       1  ZINC000863246516    0.1000
     36 H36       -11.4327   -1.4990   60.2205 H       1  ZINC000863246516    0.1000
     37 H37       -11.4714    0.7625   58.9276 H       1  ZINC000863246516    0.1000
     38 H38        -9.6966    0.6262   58.9260 H       1  ZINC000863246516    0.1000
     39 H39        -9.5874   -1.8913   55.2871 H       1  ZINC000863246516    0.0700
     40 H40       -11.3681   -1.9704   55.4022 H       1  ZINC000863246516    0.0800
     41 H41        -9.1053   -1.5059   53.0483 H       1  ZINC000863246516    0.0800
     42 H42        -9.6418    0.0180   52.2180 H       1  ZINC000863246516    0.0900
     43 H43        -6.7337   -0.1126   52.2720 H       1  ZINC000863246516    0.1200
     44 H44        -5.2670    1.5283   51.1677 H       1  ZINC000863246516    0.1200
     45 H45        -5.4318    3.9151   51.7503 H       1  ZINC000863246516    0.1200
     46 H46        -7.0639    4.6610   53.4366 H       1  ZINC000863246516    0.1200
     47 H47        -8.5337    3.0206   54.5375 H       1  ZINC000863246516    0.1200
     48 H48       -10.9109    1.5932   56.5014 H       1  ZINC000863246516    0.0700
     49 H49        -9.1846    1.1824   56.6777 H       1  ZINC000863246516    0.0700
@<TRIPOS>BOND
     1     1     2    1
     2     1    29    1
     3     1    30    1
     4     1    31    1
     5     2    28    1
     6     2     3    2
     7     3     4    1
     8     3     5    1
     9     4    32    1
    10     4    33    1
    11     4    34    1
    12     5     6    1
    13     5    26   am
    14     6     7    1
    15     6    35    1
    16     6    36    1
    17     7     8    1
    18     7    37    1
    19     7    38    1
    20     8     9    2
    21     8    10   am
    22    10    25    1
    23    10    11    1
    24    11    12    1
    25    11    39    1
    26    11    40    1
    27    12    13    1
    28    12    23    1
    29    12    14    1
    30    14    15    1
    31    14    41    1
    32    14    42    1
    33    15    16    1
    34    15    17    1
    35    15    23    1
    36    17    22   ar
    37    17    18   ar
    38    18    19   ar
    39    18    43    1
    40    19    20   ar
    41    19    44    1
    42    20    21   ar
    43    20    45    1
    44    21    22   ar
    45    21    46    1
    46    22    47    1
    47    23    24    1
    48    23    25    1
    49    25    48    1
    50    25    49    1
    51    26    27    2
    52    26    28    1
@<TRIPOS>SUBSTRUCTURE
     1 ZINC000863246516        1 TEMP              0 ****  ****    0 ROOT


##########                                Name:    ZINC001011676549
##########                DOCK_Rotatable_Bonds:                   6
##########                         Heavy_Atoms:                  24
##########                    Molecular_Weight:             330.387
##########                DOCK_Rotatable_Bonds:                   6
##########                       Formal_Charge:        -1.49012e-07
##########                     HBond_Acceptors:                   7
##########                        HBond_Donors:                   1
##########                         Heavy_Atoms:                  24
##########                          Grid_Score:          -26.906441
##########                     Grid_vdw_energy:          -26.586029
##########                      Grid_es_energy:           -0.320413
##########           Internal_energy_repulsive:           14.941724

@<TRIPOS>MOLECULE
ZINC001011676549
 46 48 1 0 0
SMALL
USER_CHARGES


@<TRIPOS>ATOM
      1 C1        -10.0216   -1.2733   55.4711 C.3     1  ZINC001011676549   -0.1700
      2 C2        -10.2152    0.2275   55.6970 C.3     1  ZINC001011676549    0.1300
      3 H3        -11.1944    0.5342   55.3293 H       1  ZINC001011676549    0.0900
      4 C4        -10.0941    0.5519   57.2008 C.3     1  ZINC001011676549    0.1400
      5 H5        -10.7823    1.3496   57.4800 H       1  ZINC001011676549    0.1100
      6 N6        -10.3353   -0.6451   58.0103 N.am    1  ZINC001011676549   -0.7200
      7 C7        -11.2834   -0.6310   58.9681 C.2     1  ZINC001011676549    0.5200
      8 O8        -11.9359    0.3730   59.1608 O.2     1  ZINC001011676549   -0.5300
      9 C9        -11.5328   -1.8629   59.7996 C.3     1  ZINC001011676549   -0.0900
     10 C10       -12.6702   -2.6505   59.2021 C.ar    1  ZINC001011676549   -0.1800
     11 C11       -13.8733   -2.7832   59.8774 C.ar    1  ZINC001011676549    0.1600
     12 N12       -14.8497   -3.4823   59.3215 N.ar    1  ZINC001011676549   -0.5200
     13 C13       -14.6883   -4.0480   58.1421 C.ar    1  ZINC001011676549    0.3000
     14 N14       -13.5588   -3.9432   57.4713 N.ar    1  ZINC001011676549   -0.5200
     15 C15       -12.5404   -3.2549   57.9617 C.ar    1  ZINC001011676549    0.1600
     16 C16        -8.6223    1.0240   57.3370 C.3     1  ZINC001011676549   -0.1400
     17 C17        -8.4090    1.7681   55.9953 C.3     1  ZINC001011676549    0.1000
     18 N18        -9.1613    0.9782   54.9989 N.am    1  ZINC001011676549   -0.6100
     19 C19        -8.9183    0.9493   53.6735 C.2     1  ZINC001011676549    0.5800
     20 O20        -9.6049    0.2595   52.9443 O.2     1  ZINC001011676549   -0.5300
     21 C21        -7.8226    1.7523   53.1090 C.2     1  ZINC001011676549   -0.1400
     22 C22        -7.8613    3.0660   53.2405 C.2     1  ZINC001011676549   -0.1500
     23 C23        -6.7918    3.9661   52.6891 C.3     1  ZINC001011676549    0.0900
     24 O24        -5.6274    3.2037   52.3653 O.3     1  ZINC001011676549   -0.3800
     25 C25        -5.9136    2.0569   51.5557 C.3     1  ZINC001011676549    0.0600
     26 C26        -6.6936    1.0488   52.4070 C.3     1  ZINC001011676549   -0.1100
     27 H27        -9.0361   -1.5706   55.8296 H       1  ZINC001011676549    0.0600
     28 H28       -10.7879   -1.8246   56.0161 H       1  ZINC001011676549    0.0700
     29 H29       -10.1030   -1.4941   54.4069 H       1  ZINC001011676549    0.0800
     30 H30        -9.8126   -1.4477   57.8571 H       1  ZINC001011676549    0.4100
     31 H31       -10.6334   -2.4786   59.8155 H       1  ZINC001011676549    0.1100
     32 H32       -11.7897   -1.5686   60.8171 H       1  ZINC001011676549    0.1100
     33 H33       -14.0119   -2.3224   60.8443 H       1  ZINC001011676549    0.1700
     34 H34       -15.5034   -4.6127   57.7141 H       1  ZINC001011676549    0.2000
     35 H35       -11.6176   -3.1725   57.4066 H       1  ZINC001011676549    0.1700
     36 H36        -8.5061    1.7020   58.1825 H       1  ZINC001011676549    0.0900
     37 H37        -7.9458    0.1739   57.4241 H       1  ZINC001011676549    0.0800
     38 H38        -8.8089    2.7804   56.0550 H       1  ZINC001011676549    0.0800
     39 H39        -7.3498    1.7924   55.7391 H       1  ZINC001011676549    0.0800
     40 H40        -8.6943    3.5107   53.7647 H       1  ZINC001011676549    0.1200
     41 H41        -7.1623    4.4594   51.7905 H       1  ZINC001011676549    0.0700
     42 H42        -6.5347    4.7201   53.4332 H       1  ZINC001011676549    0.1100
     43 H43        -6.5122    2.3560   50.6953 H       1  ZINC001011676549    0.0600
     44 H44        -4.9809    1.6052   51.2177 H       1  ZINC001011676549    0.1000
     45 H45        -6.0250    0.5997   53.1414 H       1  ZINC001011676549    0.0900
     46 H46        -7.1017    0.2693   51.7635 H       1  ZINC001011676549    0.0900
@<TRIPOS>BOND
     1     1     2    1
     2     1    27    1
     3     1    28    1
     4     1    29    1
     5     2     3    1
     6     2    18    1
     7     2     4    1
     8     4     5    1
     9     4     6    1
    10     4    16    1
    11     6     7   am
    12     6    30    1
    13     7     8    2
    14     7     9    1
    15     9    10    1
    16     9    31    1
    17     9    32    1
    18    10    15   ar
    19    10    11   ar
    20    11    12   ar
    21    11    33    1
    22    12    13   ar
    23    13    14   ar
    24    13    34    1
    25    14    15   ar
    26    15    35    1
    27    16    17    1
    28    16    36    1
    29    16    37    1
    30    17    18    1
    31    17    38    1
    32    17    39    1
    33    18    19   am
    34    19    20    2
    35    19    21    1
    36    21    26    1
    37    21    22    2
    38    22    23    1
    39    22    40    1
    40    23    24    1
    41    23    41    1
    42    23    42    1
    43    24    25    1
    44    25    26    1
    45    25    43    1
    46    25    44    1
    47    26    45    1
    48    26    46    1
@<TRIPOS>SUBSTRUCTURE
     1 ZINC001011676549        1 TEMP              0 ****  ****    0 ROOT


##########                                Name:    ZINC000057429281
##########                DOCK_Rotatable_Bonds:                  10
##########                         Heavy_Atoms:                  23
##########                    Molecular_Weight:             331.295
##########                DOCK_Rotatable_Bonds:                  10
##########                       Formal_Charge:          -0.0100002
##########                     HBond_Acceptors:                   9
##########                        HBond_Donors:                   5
##########                         Heavy_Atoms:                  23
##########                          Grid_Score:          -26.857197
##########                     Grid_vdw_energy:          -27.001587
##########                      Grid_es_energy:            0.144391
##########           Internal_energy_repulsive:            9.700711

@<TRIPOS>MOLECULE
ZINC000057429281
 39 39 1 0 0
SMALL
USER_CHARGES


@<TRIPOS>ATOM
      1 C1        -11.8192   -0.0367   54.4543 C.3     1  ZINC000057429281   -0.1500
      2 C2        -10.5047   -0.7944   54.6518 C.3     1  ZINC000057429281   -0.0400
      3 H3        -10.6093   -1.8094   54.2686 H       1  ZINC000057429281    0.0900
      4 C4        -10.1639   -0.8445   56.1424 C.3     1  ZINC000057429281   -0.1300
      5 C5        -10.8443   -2.0319   56.7736 C.2     1  ZINC000057429281    0.5200
      6 O6        -10.3976   -3.1468   56.6056 O.2     1  ZINC000057429281   -0.5300
      7 N7        -11.9493   -1.8547   57.5247 N.am    1  ZINC000057429281   -0.7000
      8 C8        -12.6117   -3.0091   58.1369 C.3     1  ZINC000057429281    0.1100
      9 C9        -13.3615   -2.5644   59.3663 C.2     1  ZINC000057429281    0.5200
     10 N10       -12.9947   -1.4377   60.0084 N.am    1  ZINC000057429281   -0.8500
     11 O11       -14.2948   -3.2205   59.7777 O.2     1  ZINC000057429281   -0.5100
     12 C12       -13.5774   -3.6151   57.1513 C.2     1  ZINC000057429281    0.5300
     13 N13       -14.7640   -3.0201   56.9177 N.am    1  ZINC000057429281   -0.8400
     14 O14       -13.2869   -4.6381   56.5684 O.2     1  ZINC000057429281   -0.5100
     15 C15        -9.4011   -0.0878   53.9076 C.ar    1  ZINC000057429281   -0.0500
     16 C16        -8.9922    1.1703   54.3088 C.ar    1  ZINC000057429281   -0.1200
     17 C17        -7.9798    1.8184   53.6262 C.ar    1  ZINC000057429281   -0.0700
     18 C18        -7.3760    1.2083   52.5427 C.ar    1  ZINC000057429281   -0.1900
     19 C19        -6.2726    1.9150   51.7983 C.3     1  ZINC000057429281    0.5100
     20 F20        -6.6023    1.9948   50.4411 F       1  ZINC000057429281   -0.1800
     21 F21        -6.1124    3.2047   52.3161 F       1  ZINC000057429281   -0.1800
     22 F22        -5.0785    1.2012   51.9469 F       1  ZINC000057429281   -0.1800
     23 C23        -7.7839   -0.0504   52.1424 C.ar    1  ZINC000057429281   -0.0700
     24 C24        -8.7937   -0.7001   52.8273 C.ar    1  ZINC000057429281   -0.1100
     25 H25       -12.0620   -0.0009   53.3924 H       1  ZINC000057429281    0.0600
     26 H26       -12.6175   -0.5478   54.9926 H       1  ZINC000057429281    0.0800
     27 H27       -11.7146    0.9784   54.8375 H       1  ZINC000057429281    0.0500
     28 H28        -9.0848   -0.9364   56.2655 H       1  ZINC000057429281    0.1000
     29 H29       -10.5081    0.0702   56.6248 H       1  ZINC000057429281    0.1000
     30 H30       -12.3059   -0.9628   57.6601 H       1  ZINC000057429281    0.4200
     31 H31       -11.8639   -3.7513   58.4160 H       1  ZINC000057429281    0.1300
     32 H32       -13.4771   -1.1514   60.7997 H       1  ZINC000057429281    0.4000
     33 H33       -12.2480   -0.9132   59.6793 H       1  ZINC000057429281    0.4100
     34 H34       -15.3856   -3.4101   56.2834 H       1  ZINC000057429281    0.4000
     35 H35       -14.9963   -2.2018   57.3839 H       1  ZINC000057429281    0.4100
     36 H36        -9.4639    1.6470   55.1554 H       1  ZINC000057429281    0.1400
     37 H37        -7.6608    2.8016   53.9393 H       1  ZINC000057429281    0.1400
     38 H38        -7.3119   -0.5273   51.2961 H       1  ZINC000057429281    0.1400
     39 H39        -9.1123   -1.6834   52.5145 H       1  ZINC000057429281    0.1400
@<TRIPOS>BOND
     1     1     2    1
     2     1    25    1
     3     1    26    1
     4     1    27    1
     5     2     3    1
     6     2     4    1
     7     2    15    1
     8     4     5    1
     9     4    28    1
    10     4    29    1
    11     5     6    2
    12     5     7   am
    13     7     8    1
    14     7    30    1
    15     8     9    1
    16     8    12    1
    17     8    31    1
    18     9    10   am
    19     9    11    2
    20    10    32    1
    21    10    33    1
    22    12    13   am
    23    12    14    2
    24    13    34    1
    25    13    35    1
    26    15    24   ar
    27    15    16   ar
    28    16    17   ar
    29    16    36    1
    30    17    18   ar
    31    17    37    1
    32    18    19    1
    33    18    23   ar
    34    19    20    1
    35    19    21    1
    36    19    22    1
    37    23    24   ar
    38    23    38    1
    39    24    39    1
@<TRIPOS>SUBSTRUCTURE
     1 ZINC000057429281        1 TEMP              0 ****  ****    0 ROOT


##########                                Name:    ZINC000826324849
##########                DOCK_Rotatable_Bonds:                   4
##########                         Heavy_Atoms:                  27
##########                    Molecular_Weight:             395.374
##########                DOCK_Rotatable_Bonds:                   4
##########                       Formal_Charge:           0.0400001
##########                     HBond_Acceptors:                  13
##########                        HBond_Donors:                   1
##########                         Heavy_Atoms:                  27
##########                          Grid_Score:          -26.856468
##########                     Grid_vdw_energy:          -27.305975
##########                      Grid_es_energy:            0.449507
##########           Internal_energy_repulsive:          138.126251

@<TRIPOS>MOLECULE
ZINC000826324849
 41 44 1 0 0
SMALL
USER_CHARGES


@<TRIPOS>ATOM
      1 C1         -9.1397    2.3548   55.0175 C.3     1  ZINC000826324849   -0.0600
      2 C2         -9.2752    1.0871   55.8212 C.2     1  ZINC000826324849    0.2000
      3 N3         -9.2008    0.9778   57.1258 N.2     1  ZINC000826324849   -0.4600
      4 C4         -9.3798   -0.3287   57.3904 C.2     1  ZINC000826324849    0.1600
      5 C5         -9.3821   -0.9703   58.7539 C.3     1  ZINC000826324849    0.2200
      6 H6         -9.3396   -2.0546   58.6495 H       1  ZINC000826324849    0.1300
      7 C7         -8.1713   -0.4812   59.5568 C.3     1  ZINC000826324849    0.0600
      8 O8         -8.2812   -0.9458   60.9043 O.3     1  ZINC000826324849   -0.3600
      9 C9         -9.4222   -0.4449   61.6049 C.3     1  ZINC000826324849    0.0400
     10 C10       -10.6970   -0.9323   60.9070 C.3     1  ZINC000826324849    0.0800
     11 N11       -10.6049   -0.5899   59.4786 N.am    1  ZINC000826324849   -1.0100
     12 S12       -11.8402    0.2015   58.7103 S.o2    1  ZINC000826324849    2.7100
     13 O13       -12.1063    1.3687   59.4757 O.2     1  ZINC000826324849   -0.9300
     14 O14       -11.4976    0.2374   57.3317 O.2     1  ZINC000826324849   -0.9300
     15 C15       -13.2726   -0.8164   58.8407 C.ar    1  ZINC000826324849   -0.5800
     16 C16       -14.4032   -0.3405   59.4731 C.ar    1  ZINC000826324849   -0.0400
     17 C17       -15.5292   -1.1376   59.5770 C.ar    1  ZINC000826324849   -0.0800
     18 C18       -15.5297   -2.4152   59.0489 C.ar    1  ZINC000826324849   -0.1100
     19 C19       -14.4026   -2.9030   58.4131 C.ar    1  ZINC000826324849    0.1300
     20 F20       -14.4033   -4.1515   57.8967 F       1  ZINC000826324849   -0.1100
     21 C21       -13.2672   -2.1004   58.3008 C.ar    1  ZINC000826324849    0.0500
     22 C22       -12.0540   -2.6170   57.6191 C.2     1  ZINC000826324849    0.1800
     23 N23       -11.7882   -2.5534   56.3296 N.2     1  ZINC000826324849   -0.2600
     24 N24       -10.6423   -3.1103   56.1353 N.pl3   1  ZINC000826324849   -0.2200
     25 N25       -10.1739   -3.5245   57.2605 N.2     1  ZINC000826324849   -0.0200
     26 N26       -11.0130   -3.2339   58.1960 N.2     1  ZINC000826324849   -0.2600
     27 N27        -9.5509   -0.9359   56.2544 N.2     1  ZINC000826324849   -0.3800
     28 O28        -9.5002   -0.1396   55.3407 O.3     1  ZINC000826324849    0.0900
     29 H29        -9.2533    2.1270   53.9577 H       1  ZINC000826324849    0.1000
     30 H30        -9.9112    3.0621   55.3218 H       1  ZINC000826324849    0.1100
     31 H31        -8.1566    2.7920   55.1918 H       1  ZINC000826324849    0.1100
     32 H32        -7.2567   -0.8715   59.1104 H       1  ZINC000826324849    0.1200
     33 H33        -8.1450    0.6085   59.5484 H       1  ZINC000826324849    0.0600
     34 H34        -9.4075   -0.8093   62.6322 H       1  ZINC000826324849    0.1200
     35 H35        -9.4005    0.6449   61.6040 H       1  ZINC000826324849    0.0600
     36 H36       -10.7873   -2.0127   61.0199 H       1  ZINC000826324849    0.0900
     37 H37       -11.5662   -0.4429   61.3465 H       1  ZINC000826324849    0.1100
     38 H38       -14.4089    0.6565   59.8882 H       1  ZINC000826324849    0.1400
     39 H39       -16.4114   -0.7603   60.0728 H       1  ZINC000826324849    0.1500
     40 H40       -16.4112   -3.0334   59.1335 H       1  ZINC000826324849    0.1500
     41 H41       -10.2021   -3.2031   55.2760 H       1  ZINC000826324849    0.4800
@<TRIPOS>BOND
     1     1     2    1
     2     1    29    1
     3     1    30    1
     4     1    31    1
     5     2    28    1
     6     2     3    2
     7     3     4    1
     8     4     5    1
     9     4    27    2
    10     5     6    1
    11     5    11    1
    12     5     7    1
    13     7     8    1
    14     7    32    1
    15     7    33    1
    16     8     9    1
    17     9    10    1
    18     9    34    1
    19     9    35    1
    20    10    11    1
    21    10    36    1
    22    10    37    1
    23    11    12   am
    24    12    13    2
    25    12    14    2
    26    12    15    1
    27    15    21   ar
    28    15    16   ar
    29    16    17   ar
    30    16    38    1
    31    17    18   ar
    32    17    39    1
    33    18    19   ar
    34    18    40    1
    35    19    20    1
    36    19    21   ar
    37    21    22    1
    38    22    26    1
    39    22    23    2
    40    23    24    1
    41    24    25    1
    42    24    41    1
    43    25    26    2
    44    27    28    1
@<TRIPOS>SUBSTRUCTURE
     1 ZINC000826324849        1 TEMP              0 ****  ****    0 ROOT


##########                                Name:    ZINC000915315870
##########                DOCK_Rotatable_Bonds:                   4
##########                         Heavy_Atoms:                  24
##########                    Molecular_Weight:             357.381
##########                DOCK_Rotatable_Bonds:                   4
##########                       Formal_Charge:           0.0300002
##########                     HBond_Acceptors:                   9
##########                        HBond_Donors:                   1
##########                         Heavy_Atoms:                  24
##########                          Grid_Score:          -26.841917
##########                     Grid_vdw_energy:          -26.725145
##########                      Grid_es_energy:           -0.116771
##########           Internal_energy_repulsive:           36.679241

@<TRIPOS>MOLECULE
ZINC000915315870
 41 43 1 0 0
SMALL
USER_CHARGES


@<TRIPOS>ATOM
      1 C1        -14.3691   -3.7930   57.5108 C.3     1  ZINC000915315870    0.0300
      2 O2        -14.1155   -2.7988   58.5055 O.3     1  ZINC000915315870   -0.3200
      3 C3        -12.8137   -2.4978   58.7597 C.ar    1  ZINC000915315870    0.0800
      4 C4        -12.4939   -1.5490   59.7214 C.ar    1  ZINC000915315870    0.0900
      5 F5        -13.4759   -0.9235   60.4069 F       1  ZINC000915315870   -0.1100
      6 C6        -11.1686   -1.2450   59.9777 C.ar    1  ZINC000915315870   -0.0500
      7 C7        -10.1631   -1.8846   59.2768 C.ar    1  ZINC000915315870   -0.6300
      8 S8         -8.4767   -1.4943   59.6055 S.o2    1  ZINC000915315870    2.7000
      9 O9         -8.4532   -0.8514   60.8726 O.2     1  ZINC000915315870   -0.9400
     10 O10        -7.7294   -2.6676   59.3153 O.2     1  ZINC000915315870   -0.9400
     11 N11        -8.0114   -0.3570   58.4954 N.am    1  ZINC000915315870   -1.1100
     12 C12        -8.7042    0.9323   58.4331 C.3     1  ZINC000915315870    0.2400
     13 H13        -9.7623    0.7921   58.6535 H       1  ZINC000915315870    0.0900
     14 C14        -8.0876    1.9008   59.4504 C.3     1  ZINC000915315870   -0.1400
     15 C15        -8.6391    3.3098   59.2217 C.3     1  ZINC000915315870   -0.1100
     16 C16        -8.0510    3.8933   57.9309 C.3     1  ZINC000915315870   -0.0400
     17 C17        -8.2426    2.8826   56.8263 C.2     1  ZINC000915315870    0.0900
     18 N18        -8.1682    3.0694   55.5407 N.2     1  ZINC000915315870   -0.2900
     19 N19        -8.4220    1.8440   54.9060 N.pl3   1  ZINC000915315870   -0.3800
     20 C20        -8.4364    1.6098   53.4599 C.3     1  ZINC000915315870    0.1000
     21 C21        -8.6503    0.9173   55.8636 C.2     1  ZINC000915315870    0.0800
     22 C22        -8.5454    1.5295   57.0566 C.2     1  ZINC000915315870   -0.2500
     23 C23       -10.4781   -2.8303   58.3187 C.ar    1  ZINC000915315870   -0.0500
     24 C24       -11.8014   -3.1429   58.0618 C.ar    1  ZINC000915315870    0.1000
     25 F25       -12.1085   -4.0671   57.1255 F       1  ZINC000915315870   -0.1100
     26 H26       -15.4446   -3.9367   57.4068 H       1  ZINC000915315870    0.1100
     27 H27       -13.9522   -3.4679   56.5577 H       1  ZINC000915315870    0.0600
     28 H28       -13.9042   -4.7325   57.8093 H       1  ZINC000915315870    0.0500
     29 H29       -10.9193   -0.5070   60.7258 H       1  ZINC000915315870    0.1700
     30 H30        -7.2800   -0.5445   57.8863 H       1  ZINC000915315870    0.4200
     31 H31        -8.3366    1.5733   60.4598 H       1  ZINC000915315870    0.0900
     32 H32        -7.0043    1.9115   59.3304 H       1  ZINC000915315870    0.0800
     33 H33        -9.7249    3.2648   59.1373 H       1  ZINC000915315870    0.0700
     34 H34        -8.3678    3.9464   60.0638 H       1  ZINC000915315870    0.0800
     35 H35        -8.5681    4.8185   57.6767 H       1  ZINC000915315870    0.0800
     36 H36        -6.9878    4.0912   58.0679 H       1  ZINC000915315870    0.0900
     37 H37        -7.4367    1.3309   53.1271 H       1  ZINC000915315870    0.0800
     38 H38        -9.1340    0.8047   53.2292 H       1  ZINC000915315870    0.0900
     39 H39        -8.7492    2.5196   52.9476 H       1  ZINC000915315870    0.0900
     40 H40        -8.8764   -0.1261   55.7002 H       1  ZINC000915315870    0.1700
     41 H41        -9.6905   -3.3285   57.7730 H       1  ZINC000915315870    0.1700
@<TRIPOS>BOND
     1     1     2    1
     2     1    26    1
     3     1    27    1
     4     1    28    1
     5     2     3    1
     6     3    24   ar
     7     3     4   ar
     8     4     5    1
     9     4     6   ar
    10     6     7   ar
    11     6    29    1
    12     7     8    1
    13     7    23   ar
    14     8     9    2
    15     8    10    2
    16     8    11   am
    17    11    12    1
    18    11    30    1
    19    12    13    1
    20    12    22    1
    21    12    14    1
    22    14    15    1
    23    14    31    1
    24    14    32    1
    25    15    16    1
    26    15    33    1
    27    15    34    1
    28    16    17    1
    29    16    35    1
    30    16    36    1
    31    17    22    1
    32    17    18    2
    33    18    19    1
    34    19    20    1
    35    19    21    1
    36    20    37    1
    37    20    38    1
    38    20    39    1
    39    21    22    2
    40    21    40    1
    41    23    24   ar
    42    23    41    1
    43    24    25    1
@<TRIPOS>SUBSTRUCTURE
     1 ZINC000915315870        1 TEMP              0 ****  ****    0 ROOT


##########                                Name:    ZINC000433961694
##########                DOCK_Rotatable_Bonds:                   7
##########                         Heavy_Atoms:                  29
##########                    Molecular_Weight:             413.472
##########                DOCK_Rotatable_Bonds:                   7
##########                       Formal_Charge:          0.00999992
##########                     HBond_Acceptors:                   8
##########                        HBond_Donors:                   0
##########                         Heavy_Atoms:                  29
##########                          Grid_Score:          -26.837206
##########                     Grid_vdw_energy:          -27.191305
##########                      Grid_es_energy:            0.354100
##########           Internal_energy_repulsive:           90.044647

@<TRIPOS>MOLECULE
ZINC000433961694
 49 52 1 0 0
SMALL
USER_CHARGES


@<TRIPOS>ATOM
      1 C1         -9.1187   -0.6114   58.0326 C.3     1  ZINC000433961694   -0.1000
      2 C2         -9.7532   -0.1489   56.7464 C.2     1  ZINC000433961694    0.1600
      3 C3        -10.6194   -0.9133   56.0353 C.2     1  ZINC000433961694   -0.3000
      4 C4        -11.0667   -2.2659   56.3845 C.2     1  ZINC000433961694    0.6200
      5 O5        -10.2721   -3.1874   56.3888 O.2     1  ZINC000433961694   -0.5100
      6 N6        -12.3579   -2.4880   56.7007 N.am    1  ZINC000433961694   -0.6100
      7 C7        -12.9404   -3.7912   57.0693 C.3     1  ZINC000433961694    0.1100
      8 C8        -14.1954   -3.4419   57.9075 C.3     1  ZINC000433961694   -0.1300
      9 C9        -14.7182   -2.1786   57.1739 C.3     1  ZINC000433961694    0.0800
     10 H10       -15.3172   -2.4564   56.3067 H       1  ZINC000433961694    0.1000
     11 O11       -15.4727   -1.3532   58.0636 O.3     1  ZINC000433961694   -0.2900
     12 C12       -14.8275   -0.8771   59.1589 C.ar    1  ZINC000433961694    0.1700
     13 C13       -15.4877   -0.0692   60.0814 C.ar    1  ZINC000433961694   -0.2600
     14 C14       -14.7970    0.3948   61.1819 C.ar    1  ZINC000433961694    0.1400
     15 N15       -13.5282    0.0820   61.3652 N.ar    1  ZINC000433961694   -0.5100
     16 C16       -12.8687   -0.6806   60.5138 C.ar    1  ZINC000433961694    0.1400
     17 C17       -13.4904   -1.1887   59.3917 C.ar    1  ZINC000433961694   -0.2000
     18 C18       -13.4176   -1.4697   56.7413 C.3     1  ZINC000433961694    0.0600
     19 S19       -11.1113    0.0101   54.6174 S.3     1  ZINC000433961694    0.2100
     20 C20       -10.1205    1.3130   55.1106 C.2     1  ZINC000433961694    0.0400
     21 C21        -9.9719    2.6121   54.3614 C.3     1  ZINC000433961694    0.1400
     22 O22        -9.6263    2.3410   53.0016 O.3     1  ZINC000433961694   -0.3000
     23 C23        -8.3115    2.1276   52.7297 C.ar    1  ZINC000433961694    0.1200
     24 C24        -7.4058    3.1745   52.8168 C.ar    1  ZINC000433961694   -0.1800
     25 C25        -6.0700    2.9563   52.5402 C.ar    1  ZINC000433961694   -0.1100
     26 C26        -5.6352    1.6934   52.1757 C.ar    1  ZINC000433961694    0.0600
     27 F27        -4.3287    1.4813   51.9050 F       1  ZINC000433961694   -0.1400
     28 C28        -6.5381    0.6473   52.0888 C.ar    1  ZINC000433961694   -0.1100
     29 C29        -7.8735    0.8615   52.3704 C.ar    1  ZINC000433961694   -0.1200
     30 N30        -9.5203    1.0279   56.2213 N.2     1  ZINC000433961694   -0.4500
     31 H31        -9.7537   -0.3301   58.8727 H       1  ZINC000433961694    0.0800
     32 H32        -9.0029   -1.6950   58.0116 H       1  ZINC000433961694    0.1000
     33 H33        -8.1405   -0.1436   58.1440 H       1  ZINC000433961694    0.0800
     34 H34       -13.2239   -4.3466   56.1752 H       1  ZINC000433961694    0.0800
     35 H35       -12.2336   -4.3673   57.6665 H       1  ZINC000433961694    0.1000
     36 H36       -14.9282   -4.2478   57.8683 H       1  ZINC000433961694    0.1000
     37 H37       -13.9252   -3.2115   58.9381 H       1  ZINC000433961694    0.1000
     38 H38       -16.5260    0.1908   59.9371 H       1  ZINC000433961694    0.1400
     39 H39       -15.3010    1.0222   61.9022 H       1  ZINC000433961694    0.1600
     40 H40       -11.8307   -0.9135   60.6999 H       1  ZINC000433961694    0.1700
     41 H41       -12.9450   -1.8125   58.6989 H       1  ZINC000433961694    0.1400
     42 H42       -13.1629   -0.6911   57.4603 H       1  ZINC000433961694    0.0900
     43 H43       -13.5448   -1.0346   55.7499 H       1  ZINC000433961694    0.0800
     44 H44       -10.9134    3.1604   54.3946 H       1  ZINC000433961694    0.0900
     45 H45        -9.1866    3.2103   54.8235 H       1  ZINC000433961694    0.1000
     46 H46        -7.7448    4.1599   53.1003 H       1  ZINC000433961694    0.1400
     47 H47        -5.3646    3.7713   52.6079 H       1  ZINC000433961694    0.1400
     48 H48        -6.1976   -0.3374   51.8047 H       1  ZINC000433961694    0.1500
     49 H49        -8.5776    0.0454   52.3026 H       1  ZINC000433961694    0.1400
@<TRIPOS>BOND
     1     1     2    1
     2     1    31    1
     3     1    32    1
     4     1    33    1
     5     2    30    1
     6     2     3    2
     7     3     4    1
     8     3    19    1
     9     4     5    2
    10     4     6   am
    11     6    18    1
    12     6     7    1
    13     7     8    1
    14     7    34    1
    15     7    35    1
    16     8     9    1
    17     8    36    1
    18     8    37    1
    19     9    10    1
    20     9    11    1
    21     9    18    1
    22    11    12    1
    23    12    17   ar
    24    12    13   ar
    25    13    14   ar
    26    13    38    1
    27    14    15   ar
    28    14    39    1
    29    15    16   ar
    30    16    17   ar
    31    16    40    1
    32    17    41    1
    33    18    42    1
    34    18    43    1
    35    19    20    1
    36    20    21    1
    37    20    30    2
    38    21    22    1
    39    21    44    1
    40    21    45    1
    41    22    23    1
    42    23    29   ar
    43    23    24   ar
    44    24    25   ar
    45    24    46    1
    46    25    26   ar
    47    25    47    1
    48    26    27    1
    49    26    28   ar
    50    28    29   ar
    51    28    48    1
    52    29    49    1
@<TRIPOS>SUBSTRUCTURE
     1 ZINC000433961694        1 TEMP              0 ****  ****    0 ROOT


##########                                Name:    ZINC000347662449
##########                DOCK_Rotatable_Bonds:                   5
##########                         Heavy_Atoms:                  23
##########                    Molecular_Weight:              327.45
##########                DOCK_Rotatable_Bonds:                   5
##########                       Formal_Charge:                0.03
##########                     HBond_Acceptors:                   5
##########                        HBond_Donors:                   0
##########                         Heavy_Atoms:                  23
##########                          Grid_Score:          -26.827311
##########                     Grid_vdw_energy:          -25.748859
##########                      Grid_es_energy:           -1.078451
##########           Internal_energy_repulsive:            7.432137

@<TRIPOS>MOLECULE
ZINC000347662449
 44 46 1 0 0
SMALL
USER_CHARGES


@<TRIPOS>ATOM
      1 C1         -8.0089    0.0598   52.4709 C.2     1  ZINC000347662449   -0.1800
      2 C2         -8.1333    1.3606   52.5638 C.2     1  ZINC000347662449   -0.1700
      3 C3         -8.5951    1.9829   53.8563 C.3     1  ZINC000347662449    0.1600
      4 N4         -9.5888    1.1124   54.4897 N.am    1  ZINC000347662449   -0.6200
      5 C5        -10.9947    1.0240   54.0781 C.3     1  ZINC000347662449    0.1100
      6 C6        -11.5253   -0.2858   54.7022 C.3     1  ZINC000347662449   -0.1100
      7 C7        -10.5812   -0.4626   55.9139 C.3     1  ZINC000347662449   -0.1200
      8 H8        -11.0246   -0.0278   56.8097 H       1  ZINC000347662449    0.1400
      9 S9        -10.2116   -2.2147   56.1785 S.3     1  ZINC000347662449    0.0300
     10 C10       -11.6407   -2.6945   57.0909 C.2     1  ZINC000347662449    0.1900
     11 N11       -12.6273   -3.4341   56.6403 N.2     1  ZINC000347662449   -0.4500
     12 C12       -13.5420   -3.5958   57.6113 C.2     1  ZINC000347662449   -0.0100
     13 C13       -13.1200   -2.9394   58.7055 C.2     1  ZINC000347662449   -0.0400
     14 N14       -11.9075   -2.3657   58.3873 N.pl3   1  ZINC000347662449   -0.4000
     15 C15       -11.1056   -1.5860   59.2326 C.ar    1  ZINC000347662449    0.1100
     16 C16        -9.7841   -1.9434   59.4618 C.ar    1  ZINC000347662449   -0.1100
     17 C17        -8.9964   -1.1732   60.2954 C.ar    1  ZINC000347662449   -0.1000
     18 C18        -9.5231   -0.0475   60.9009 C.ar    1  ZINC000347662449   -0.0800
     19 C19        -8.6610    0.7909   61.8093 C.3     1  ZINC000347662449   -0.1200
     20 C20       -10.8394    0.3111   60.6745 C.ar    1  ZINC000347662449   -0.0700
     21 C21       -11.4098    1.5389   61.3364 C.3     1  ZINC000347662449   -0.1200
     22 C22       -11.6302   -0.4517   59.8377 C.ar    1  ZINC000347662449   -0.1100
     23 C23        -9.3285    0.2879   55.5189 C.2     1  ZINC000347662449    0.5300
     24 O24        -8.2483    0.1684   56.0573 O.2     1  ZINC000347662449   -0.4900
     25 H25        -8.2373   -0.5666   53.3205 H       1  ZINC000347662449    0.1000
     26 H26        -7.6821   -0.3865   51.5433 H       1  ZINC000347662449    0.1000
     27 H27        -7.9049    1.9869   51.7142 H       1  ZINC000347662449    0.1100
     28 H28        -7.7430    2.1078   54.5243 H       1  ZINC000347662449    0.0900
     29 H29        -9.0421    2.9558   53.6518 H       1  ZINC000347662449    0.0900
     30 H30       -11.5541    1.8778   54.4606 H       1  ZINC000347662449    0.0800
     31 H31       -11.0676    0.9807   52.9914 H       1  ZINC000347662449    0.0900
     32 H32       -12.5596   -0.1721   55.0269 H       1  ZINC000347662449    0.1100
     33 H33       -11.4259   -1.1181   54.0054 H       1  ZINC000347662449    0.0900
     34 H34       -14.4604   -4.1578   57.5268 H       1  ZINC000347662449    0.1800
     35 H35       -13.6316   -2.8763   59.6546 H       1  ZINC000347662449    0.1800
     36 H36        -9.3721   -2.8228   58.9893 H       1  ZINC000347662449    0.1300
     37 H37        -7.9681   -1.4509   60.4744 H       1  ZINC000347662449    0.1300
     38 H38        -8.1601    1.5625   61.2245 H       1  ZINC000347662449    0.0800
     39 H39        -9.2841    1.2594   62.5710 H       1  ZINC000347662449    0.0700
     40 H40        -7.9152    0.1572   62.2891 H       1  ZINC000347662449    0.0700
     41 H41       -11.2539    2.4045   60.6926 H       1  ZINC000347662449    0.0800
     42 H42       -12.4776    1.3984   61.5042 H       1  ZINC000347662449    0.0700
     43 H43       -10.9104    1.7019   62.2915 H       1  ZINC000347662449    0.0800
     44 H44       -12.6580   -0.1711   59.6610 H       1  ZINC000347662449    0.1300
@<TRIPOS>BOND
     1     1     2    2
     2     1    25    1
     3     1    26    1
     4     2     3    1
     5     2    27    1
     6     3     4    1
     7     3    28    1
     8     3    29    1
     9     4    23   am
    10     4     5    1
    11     5     6    1
    12     5    30    1
    13     5    31    1
    14     6     7    1
    15     6    32    1
    16     6    33    1
    17     7     8    1
    18     7     9    1
    19     7    23    1
    20     9    10    1
    21    10    14    1
    22    10    11    2
    23    11    12    1
    24    12    13    2
    25    12    34    1
    26    13    14    1
    27    13    35    1
    28    14    15    1
    29    15    22   ar
    30    15    16   ar
    31    16    17   ar
    32    16    36    1
    33    17    18   ar
    34    17    37    1
    35    18    19    1
    36    18    20   ar
    37    19    38    1
    38    19    39    1
    39    19    40    1
    40    20    21    1
    41    20    22   ar
    42    21    41    1
    43    21    42    1
    44    21    43    1
    45    22    44    1
    46    23    24    2
@<TRIPOS>SUBSTRUCTURE
     1 ZINC000347662449        1 TEMP              0 ****  ****    0 ROOT


##########                                Name:    ZINC000469435497
##########                DOCK_Rotatable_Bonds:                   6
##########                         Heavy_Atoms:                  27
##########                    Molecular_Weight:             364.444
##########                DOCK_Rotatable_Bonds:                   6
##########                       Formal_Charge:           0.0300001
##########                     HBond_Acceptors:                   5
##########                        HBond_Donors:                   2
##########                         Heavy_Atoms:                  27
##########                          Grid_Score:          -26.790945
##########                     Grid_vdw_energy:          -25.864672
##########                      Grid_es_energy:           -0.926274
##########           Internal_energy_repulsive:            4.078425

@<TRIPOS>MOLECULE
ZINC000469435497
 51 54 1 0 0
SMALL
USER_CHARGES


@<TRIPOS>ATOM
      1 C1         -7.0230    2.7750   50.9275 C.3     1  ZINC000469435497   -0.1600
      2 C2         -6.2589    2.1257   52.0830 C.3     1  ZINC000469435497    0.1000
      3 C3         -4.7493    2.2180   51.8516 C.3     1  ZINC000469435497   -0.1400
      4 C4         -6.6511    2.7735   53.4319 C.3     1  ZINC000469435497   -0.1000
      5 C5         -7.7691    1.8637   53.9035 C.ar    1  ZINC000469435497   -0.1500
      6 C6         -8.7324    2.0129   54.8754 C.ar    1  ZINC000469435497   -0.0700
      7 C7         -9.6573    0.9995   55.0961 C.ar    1  ZINC000469435497    0.1100
      8 N8        -10.6405    1.1456   56.0836 N.am    1  ZINC000469435497   -0.6600
      9 C9        -10.4991    0.5259   57.2721 C.2     1  ZINC000469435497    0.5100
     10 O10        -9.5208   -0.1583   57.4867 O.2     1  ZINC000469435497   -0.5200
     11 C11       -11.5565    0.6830   58.3343 C.3     1  ZINC000469435497    0.1000
     12 N12       -10.9269    0.6621   59.6569 N.am    1  ZINC000469435497   -0.7200
     13 C13       -11.5150    1.2920   60.6931 C.2     1  ZINC000469435497    0.5700
     14 O14       -12.5669    1.8787   60.5300 O.2     1  ZINC000469435497   -0.5300
     15 C15       -10.8805    1.2694   62.0284 C.ar    1  ZINC000469435497   -0.1400
     16 C16       -11.3583    2.0957   63.0463 C.ar    1  ZINC000469435497   -0.0800
     17 C17       -10.7605    2.0680   64.2882 C.ar    1  ZINC000469435497   -0.1100
     18 C18        -9.6879    1.2244   64.5319 C.ar    1  ZINC000469435497   -0.0700
     19 C19        -8.8746    1.0158   65.7920 C.3     1  ZINC000469435497   -0.0900
     20 C20        -8.1401   -0.3252   65.5817 C.3     1  ZINC000469435497   -0.1200
     21 C21        -8.0434   -0.4130   64.0439 C.3     1  ZINC000469435497   -0.0800
     22 C22        -9.2094    0.4024   63.5263 C.ar    1  ZINC000469435497   -0.1100
     23 C23        -9.8047    0.4179   62.2794 C.ar    1  ZINC000469435497   -0.0400
     24 C24        -9.6016   -0.1584   54.3322 C.ar    1  ZINC000469435497   -0.1000
     25 C25        -8.6325   -0.3056   53.3622 C.ar    1  ZINC000469435497   -0.1200
     26 C26        -7.7015    0.7056   53.1392 C.ar    1  ZINC000469435497    0.1000
     27 O27        -6.6648    0.7575   52.2569 O.3     1  ZINC000469435497   -0.3000
     28 H28        -8.0936    2.7262   51.1269 H       1  ZINC000469435497    0.0600
     29 H29        -6.7186    3.8171   50.8307 H       1  ZINC000469435497    0.0800
     30 H30        -6.8013    2.2443   50.0015 H       1  ZINC000469435497    0.0700
     31 H31        -4.4543    3.2656   51.7919 H       1  ZINC000469435497    0.0800
     32 H32        -4.2249    1.7394   52.6786 H       1  ZINC000469435497    0.0700
     33 H33        -4.4933    1.7147   50.9192 H       1  ZINC000469435497    0.0700
     34 H34        -5.8143    2.7564   54.1302 H       1  ZINC000469435497    0.0900
     35 H35        -7.0129    3.7911   53.2847 H       1  ZINC000469435497    0.0900
     36 H36        -8.7691    2.9163   55.4661 H       1  ZINC000469435497    0.1400
     37 H37       -11.4228    1.6928   55.9120 H       1  ZINC000469435497    0.4200
     38 H38       -12.0747    1.6315   58.1936 H       1  ZINC000469435497    0.1100
     39 H39       -12.2714   -0.1364   58.2592 H       1  ZINC000469435497    0.1100
     40 H40       -10.0868    0.1948   59.7869 H       1  ZINC000469435497    0.4100
     41 H41       -12.1935    2.7551   62.8618 H       1  ZINC000469435497    0.1300
     42 H42       -11.1300    2.7078   65.0760 H       1  ZINC000469435497    0.1300
     43 H43        -8.1554    1.8254   65.9165 H       1  ZINC000469435497    0.0900
     44 H44        -9.5310    0.9552   66.6602 H       1  ZINC000469435497    0.0800
     45 H45        -7.1475   -0.2979   66.0314 H       1  ZINC000469435497    0.0800
     46 H46        -8.7248   -1.1539   65.9810 H       1  ZINC000469435497    0.0700
     47 H47        -7.1013    0.0132   63.6993 H       1  ZINC000469435497    0.0800
     48 H48        -8.1323   -1.4492   63.7180 H       1  ZINC000469435497    0.0800
     49 H49        -9.4343   -0.2279   61.4969 H       1  ZINC000469435497    0.1400
     50 H50       -10.3202   -0.9473   54.4986 H       1  ZINC000469435497    0.1400
     51 H51        -8.5956   -1.2095   52.7723 H       1  ZINC000469435497    0.1300
@<TRIPOS>BOND
     1     1     2    1
     2     1    28    1
     3     1    29    1
     4     1    30    1
     5     2    27    1
     6     2     3    1
     7     2     4    1
     8     3    31    1
     9     3    32    1
    10     3    33    1
    11     4     5    1
    12     4    34    1
    13     4    35    1
    14     5    26   ar
    15     5     6   ar
    16     6     7   ar
    17     6    36    1
    18     7     8    1
    19     7    24   ar
    20     8     9   am
    21     8    37    1
    22     9    10    2
    23     9    11    1
    24    11    12    1
    25    11    38    1
    26    11    39    1
    27    12    13   am
    28    12    40    1
    29    13    14    2
    30    13    15    1
    31    15    23   ar
    32    15    16   ar
    33    16    17   ar
    34    16    41    1
    35    17    18   ar
    36    17    42    1
    37    18    22   ar
    38    18    19    1
    39    19    20    1
    40    19    43    1
    41    19    44    1
    42    20    21    1
    43    20    45    1
    44    20    46    1
    45    21    22    1
    46    21    47    1
    47    21    48    1
    48    22    23   ar
    49    23    49    1
    50    24    25   ar
    51    24    50    1
    52    25    26   ar
    53    25    51    1
    54    26    27    1
@<TRIPOS>SUBSTRUCTURE
     1 ZINC000469435497        1 TEMP              0 ****  ****    0 ROOT


##########                                Name:    ZINC000002873519
##########                DOCK_Rotatable_Bonds:                   5
##########                         Heavy_Atoms:                  25
##########                    Molecular_Weight:             375.207
##########                DOCK_Rotatable_Bonds:                   5
##########                       Formal_Charge:               -0.02
##########                     HBond_Acceptors:                   6
##########                        HBond_Donors:                   0
##########                         Heavy_Atoms:                  25
##########                          Grid_Score:          -26.785320
##########                     Grid_vdw_energy:          -27.016043
##########                      Grid_es_energy:            0.230722
##########           Internal_energy_repulsive:            8.520108

@<TRIPOS>MOLECULE
ZINC000002873519
 37 39 1 0 0
SMALL
USER_CHARGES


@<TRIPOS>ATOM
      1 C1        -14.1146   -1.7135   57.6379 C.3     1  ZINC000002873519   -0.1500
      2 C2        -13.2653   -2.9505   57.7789 C.2     1  ZINC000002873519    0.4500
      3 O3        -13.7685   -4.0439   57.6737 O.2     1  ZINC000002873519   -0.4800
      4 O4        -11.9493   -2.8374   58.0211 O.3     1  ZINC000002873519   -0.2900
      5 C5        -11.2182   -2.1201   57.1305 C.ar    1  ZINC000002873519    0.1200
      6 C6        -10.9478   -2.6381   55.8749 C.ar    1  ZINC000002873519   -0.1100
      7 C7        -10.2038   -1.9074   54.9679 C.ar    1  ZINC000002873519   -0.0800
      8 C8         -9.7212   -0.6513   55.3039 C.ar    1  ZINC000002873519   -0.0400
      9 Cl9        -8.7888    0.2524   54.1517 Cl      1  ZINC000002873519   -0.0500
     10 C10        -9.9787   -0.1170   56.5480 C.ar    1  ZINC000002873519   -0.0800
     11 C11       -10.7363   -0.8443   57.4762 C.ar    1  ZINC000002873519   -0.0700
     12 C12       -11.0153   -0.2851   58.7996 C.2     1  ZINC000002873519    0.0400
     13 C13       -10.1093   -0.4586   59.8275 C.2     1  ZINC000002873519   -0.1900
     14 C14       -10.2160    0.0200   61.2167 C.2     1  ZINC000002873519   -0.2000
     15 C15        -9.0958   -0.3882   61.8491 C.2     1  ZINC000002873519    0.1200
     16 C16        -8.7956   -0.1187   63.2694 C.ar    1  ZINC000002873519   -0.0400
     17 C17        -7.6189   -0.6067   63.8424 C.ar    1  ZINC000002873519   -0.0800
     18 C18        -7.3444   -0.3515   65.1695 C.ar    1  ZINC000002873519   -0.1100
     19 C19        -8.2326    0.3866   65.9339 C.ar    1  ZINC000002873519   -0.0200
     20 Cl20       -7.8797    0.7034   67.6039 Cl      1  ZINC000002873519   -0.0600
     21 C21        -9.4010    0.8733   65.3718 C.ar    1  ZINC000002873519   -0.1100
     22 C22        -9.6843    0.6304   64.0441 C.ar    1  ZINC000002873519   -0.0800
     23 O23        -8.2865   -1.0742   61.0174 O.3     1  ZINC000002873519   -0.2600
     24 C24        -8.8180   -1.1708   59.7855 C.2     1  ZINC000002873519    0.5200
     25 O25        -8.3259   -1.7289   58.8227 O.2     1  ZINC000002873519   -0.4200
     26 H26       -14.5044   -1.4273   58.6148 H       1  ZINC000002873519    0.1100
     27 H27       -13.5093   -0.9011   57.2360 H       1  ZINC000002873519    0.1000
     28 H28       -14.9443   -1.9176   56.9611 H       1  ZINC000002873519    0.1100
     29 H29       -11.3190   -3.6155   55.6040 H       1  ZINC000002873519    0.1500
     30 H30        -9.9964   -2.3176   53.9906 H       1  ZINC000002873519    0.1500
     31 H31        -9.6006    0.8613   56.8058 H       1  ZINC000002873519    0.1500
     32 H32       -11.9295    0.2634   58.9723 H       1  ZINC000002873519    0.1500
     33 H33       -11.0299    0.5865   61.6445 H       1  ZINC000002873519    0.1700
     34 H34        -6.9258   -1.1830   63.2474 H       1  ZINC000002873519    0.1400
     35 H35        -6.4349   -0.7283   65.6138 H       1  ZINC000002873519    0.1400
     36 H36       -10.0898    1.4479   65.9733 H       1  ZINC000002873519    0.1400
     37 H37       -10.5957    1.0105   63.6069 H       1  ZINC000002873519    0.1400
@<TRIPOS>BOND
     1     1     2    1
     2     1    26    1
     3     1    27    1
     4     1    28    1
     5     2     3    2
     6     2     4    1
     7     4     5    1
     8     5    11   ar
     9     5     6   ar
    10     6     7   ar
    11     6    29    1
    12     7     8   ar
    13     7    30    1
    14     8     9    1
    15     8    10   ar
    16    10    11   ar
    17    10    31    1
    18    11    12    1
    19    12    13    2
    20    12    32    1
    21    13    24    1
    22    13    14    1
    23    14    15    2
    24    14    33    1
    25    15    16    1
    26    15    23    1
    27    16    22   ar
    28    16    17   ar
    29    17    18   ar
    30    17    34    1
    31    18    19   ar
    32    18    35    1
    33    19    20    1
    34    19    21   ar
    35    21    22   ar
    36    21    36    1
    37    22    37    1
    38    23    24    1
    39    24    25    2
@<TRIPOS>SUBSTRUCTURE
     1 ZINC000002873519        1 TEMP              0 ****  ****    0 ROOT


##########                                Name:    ZINC000822449555
##########                DOCK_Rotatable_Bonds:                   5
##########                         Heavy_Atoms:                  27
##########                    Molecular_Weight:             366.383
##########                DOCK_Rotatable_Bonds:                   5
##########                       Formal_Charge:          -0.0100009
##########                     HBond_Acceptors:                  10
##########                        HBond_Donors:                   2
##########                         Heavy_Atoms:                  27
##########                          Grid_Score:          -26.767801
##########                     Grid_vdw_energy:          -19.586359
##########                      Grid_es_energy:           -7.181442
##########           Internal_energy_repulsive:            8.756118

@<TRIPOS>MOLECULE
ZINC000822449555
 45 48 1 0 0
SMALL
USER_CHARGES


@<TRIPOS>ATOM
      1 C1         -6.1390    3.3303   58.1227 C.3     1  ZINC000822449555   -0.1100
      2 C2         -7.1432    2.7404   57.1662 C.ar    1  ZINC000822449555    0.1400
      3 N3         -6.9244    2.8084   55.8670 N.ar    1  ZINC000822449555   -0.5000
      4 C4         -7.7787    2.3041   54.9904 C.ar    1  ZINC000822449555    0.3000
      5 N5         -7.5047    2.4000   53.6288 N.3     1  ZINC000822449555   -0.4700
      6 C6         -7.2782    1.0711   53.0422 C.3     1  ZINC000822449555    0.0200
      7 C7         -7.0402    1.2175   51.5369 C.3     1  ZINC000822449555    0.0600
      8 O8         -5.9375    2.1013   51.3175 O.3     1  ZINC000822449555   -0.3800
      9 C9         -6.1246    3.4050   51.8751 C.3     1  ZINC000822449555    0.0600
     10 C10        -6.3534    3.2807   53.3838 C.3     1  ZINC000822449555    0.0300
     11 C11        -8.9466    1.6792   55.4144 C.ar    1  ZINC000822449555   -0.1700
     12 C12        -9.2094    1.5893   56.7691 C.ar    1  ZINC000822449555   -0.0500
     13 C13        -8.2840    2.1273   57.6621 C.ar    1  ZINC000822449555    0.0600
     14 N14        -8.5090    2.0590   59.0433 N.am    1  ZINC000822449555   -0.6600
     15 C15        -8.2943    0.9046   59.7048 C.2     1  ZINC000822449555    0.5700
     16 O16        -7.9056   -0.0778   59.1030 O.2     1  ZINC000822449555   -0.5100
     17 C17        -8.5315    0.8327   61.1609 C.ar    1  ZINC000822449555   -0.1800
     18 C18        -9.0831    1.9241   61.8456 C.ar    1  ZINC000822449555   -0.0100
     19 C19        -9.2866    1.8101   63.2068 C.ar    1  ZINC000822449555   -0.1300
     20 C20        -8.9394    0.6227   63.8498 C.ar    1  ZINC000822449555    0.2300
     21 C21        -9.1547    0.4920   65.3116 C.2     1  ZINC000822449555    0.2100
     22 N22        -9.6650    1.4028   66.1173 N.2     1  ZINC000822449555   -0.2500
     23 N23        -9.6866    0.9087   67.3073 N.pl3   1  ZINC000822449555   -0.2200
     24 N24        -9.2065   -0.2855   67.2815 N.2     1  ZINC000822449555   -0.0400
     25 N25        -8.8736   -0.5775   66.0701 N.2     1  ZINC000822449555   -0.2500
     26 N26        -8.4192   -0.3927   63.1709 N.ar    1  ZINC000822449555   -0.4500
     27 C27        -8.2147   -0.3259   61.8736 C.ar    1  ZINC000822449555    0.1400
     28 H28        -5.3997    2.5737   58.3856 H       1  ZINC000822449555    0.0800
     29 H29        -5.6405    4.1765   57.6498 H       1  ZINC000822449555    0.0800
     30 H30        -6.6504    3.6674   59.0243 H       1  ZINC000822449555    0.0700
     31 H31        -6.4047    0.6126   53.5058 H       1  ZINC000822449555    0.0600
     32 H32        -8.1531    0.4439   53.2130 H       1  ZINC000822449555    0.1000
     33 H33        -6.8154    0.2413   51.1073 H       1  ZINC000822449555    0.1100
     34 H34        -7.9339    1.6264   51.0653 H       1  ZINC000822449555    0.0600
     35 H35        -5.2376    4.0107   51.6900 H       1  ZINC000822449555    0.1000
     36 H36        -6.9916    3.8773   51.4133 H       1  ZINC000822449555    0.0600
     37 H37        -6.5531    4.2663   53.8041 H       1  ZINC000822449555    0.1000
     38 H38        -5.4650    2.8575   53.8529 H       1  ZINC000822449555    0.0600
     39 H39        -9.6398    1.2696   54.6946 H       1  ZINC000822449555    0.1400
     40 H40       -10.1085    1.1098   57.1270 H       1  ZINC000822449555    0.1500
     41 H41        -8.8192    2.8428   59.5235 H       1  ZINC000822449555    0.4100
     42 H42        -9.3423    2.8322   61.3216 H       1  ZINC000822449555    0.1600
     43 H43        -9.7093    2.6312   63.7667 H       1  ZINC000822449555    0.1600
     44 H44       -10.0134    1.3650   68.0983 H       1  ZINC000822449555    0.4800
     45 H45        -7.7897   -1.1728   61.3554 H       1  ZINC000822449555    0.1700
@<TRIPOS>BOND
     1     1     2    1
     2     1    28    1
     3     1    29    1
     4     1    30    1
     5     2    13   ar
     6     2     3   ar
     7     3     4   ar
     8     4     5    1
     9     4    11   ar
    10     5    10    1
    11     5     6    1
    12     6     7    1
    13     6    31    1
    14     6    32    1
    15     7     8    1
    16     7    33    1
    17     7    34    1
    18     8     9    1
    19     9    10    1
    20     9    35    1
    21     9    36    1
    22    10    37    1
    23    10    38    1
    24    11    12   ar
    25    11    39    1
    26    12    13   ar
    27    12    40    1
    28    13    14    1
    29    14    15   am
    30    14    41    1
    31    15    16    2
    32    15    17    1
    33    17    27   ar
    34    17    18   ar
    35    18    19   ar
    36    18    42    1
    37    19    20   ar
    38    19    43    1
    39    20    21    1
    40    20    26   ar
    41    21    25    1
    42    21    22    2
    43    22    23    1
    44    23    24    1
    45    23    44    1
    46    24    25    2
    47    26    27   ar
    48    27    45    1
@<TRIPOS>SUBSTRUCTURE
     1 ZINC000822449555        1 TEMP              0 ****  ****    0 ROOT


##########                                Name:    ZINC000004040798
##########                DOCK_Rotatable_Bonds:                   3
##########                         Heavy_Atoms:                  22
##########                    Molecular_Weight:             361.151
##########                DOCK_Rotatable_Bonds:                   3
##########                       Formal_Charge:           0.0200003
##########                     HBond_Acceptors:                   6
##########                        HBond_Donors:                   1
##########                         Heavy_Atoms:                  22
##########                          Grid_Score:          -26.764648
##########                     Grid_vdw_energy:          -26.584089
##########                      Grid_es_energy:           -0.180560
##########           Internal_energy_repulsive:            2.029150

@<TRIPOS>MOLECULE
ZINC000004040798
 31 33 1 0 0
SMALL
USER_CHARGES


@<TRIPOS>ATOM
      1 O1        -10.5244    1.1634   59.3637 O.2     1  ZINC000004040798   -0.4800
      2 C2         -9.6855    0.4811   59.9213 C.2     1  ZINC000004040798    0.6100
      3 N3         -8.9116   -0.3563   59.2029 N.am    1  ZINC000004040798   -0.6600
      4 C4         -9.0766   -0.4452   57.8170 C.ar    1  ZINC000004040798    0.2300
      5 C5         -8.6261    0.5795   56.9954 C.ar    1  ZINC000004040798   -0.1300
      6 C6         -8.7907    0.4888   55.6268 C.ar    1  ZINC000004040798   -0.0100
      7 C7         -9.4033   -0.6207   55.0744 C.ar    1  ZINC000004040798   -0.0600
      8 N8         -9.5777   -0.7141   53.6075 N.pl3   1  ZINC000004040798    0.0300
      9 O9         -9.1819    0.1859   52.8885 O.2     1  ZINC000004040798   -0.1500
     10 O10       -10.1171   -1.6909   53.1192 O.2     1  ZINC000004040798   -0.1500
     11 C11        -9.8530   -1.6438   55.8891 C.ar    1  ZINC000004040798    0.0000
     12 C12        -9.6869   -1.5621   57.2583 C.ar    1  ZINC000004040798   -0.1400
     13 Br13      -10.3020   -2.9613   58.3718 Br      1  ZINC000004040798    0.0000
     14 C14        -9.5122    0.5745   61.3775 C.2     1  ZINC000004040798   -0.0500
     15 C15       -10.2375    1.3746   62.2013 C.2     1  ZINC000004040798   -0.0800
     16 C16        -9.7231    1.1400   63.5500 C.ar    1  ZINC000004040798   -0.1500
     17 C17       -10.0387    1.6441   64.8137 C.ar    1  ZINC000004040798   -0.0500
     18 C18        -9.3487    1.2065   65.9092 C.ar    1  ZINC000004040798   -0.1400
     19 C19        -8.3372    0.2658   65.7736 C.ar    1  ZINC000004040798   -0.0700
     20 C20        -8.0104   -0.2440   64.5353 C.ar    1  ZINC000004040798   -0.1100
     21 C21        -8.6985    0.1855   63.4067 C.ar    1  ZINC000004040798    0.0800
     22 O22        -8.6122   -0.1261   62.0988 O.3     1  ZINC000004040798   -0.1900
     23 H23        -8.2400   -0.8973   59.6471 H       1  ZINC000004040798    0.4300
     24 H24        -8.1478    1.4469   57.4261 H       1  ZINC000004040798    0.1800
     25 H25        -8.4408    1.2859   54.9876 H       1  ZINC000004040798    0.1700
     26 H26       -10.3311   -2.5092   55.4544 H       1  ZINC000004040798    0.1700
     27 H27       -11.0328    2.0481   61.9176 H       1  ZINC000004040798    0.1800
     28 H28       -10.8244    2.3767   64.9247 H       1  ZINC000004040798    0.1400
     29 H29        -9.5918    1.5955   66.8869 H       1  ZINC000004040798    0.1400
     30 H30        -7.7999   -0.0703   66.6481 H       1  ZINC000004040798    0.1400
     31 H31        -7.2216   -0.9758   64.4423 H       1  ZINC000004040798    0.1400
@<TRIPOS>BOND
     1     1     2    2
     2     2     3   am
     3     2    14    1
     4     3     4    1
     5     3    23    1
     6     4    12   ar
     7     4     5   ar
     8     5     6   ar
     9     5    24    1
    10     6     7   ar
    11     6    25    1
    12     7     8    1
    13     7    11   ar
    14     8     9    2
    15     8    10    2
    16    11    12   ar
    17    11    26    1
    18    12    13    1
    19    14    22    1
    20    14    15    2
    21    15    16    1
    22    15    27    1
    23    16    21   ar
    24    16    17   ar
    25    17    18   ar
    26    17    28    1
    27    18    19   ar
    28    18    29    1
    29    19    20   ar
    30    19    30    1
    31    20    21   ar
    32    20    31    1
    33    21    22    1
@<TRIPOS>SUBSTRUCTURE
     1 ZINC000004040798        1 TEMP              0 ****  ****    0 ROOT


##########                                Name:    ZINC000245764166
##########                DOCK_Rotatable_Bonds:                   8
##########                         Heavy_Atoms:                  26
##########                    Molecular_Weight:             359.512
##########                DOCK_Rotatable_Bonds:                   8
##########                       Formal_Charge:          -0.0100008
##########                     HBond_Acceptors:                   5
##########                        HBond_Donors:                   2
##########                         Heavy_Atoms:                  26
##########                          Grid_Score:          -26.759764
##########                     Grid_vdw_energy:          -26.016382
##########                      Grid_es_energy:           -0.743382
##########           Internal_energy_repulsive:           30.463757

@<TRIPOS>MOLECULE
ZINC000245764166
 59 61 1 0 0
SMALL
USER_CHARGES


@<TRIPOS>ATOM
      1 C1         -5.5862    2.5235   52.4701 C.3     1  ZINC000245764166    0.0200
      2 N2         -6.9683    2.3116   52.9206 N.3     1  ZINC000245764166   -0.5300
      3 C3         -7.7086    1.4705   51.9706 C.3     1  ZINC000245764166    0.0600
      4 C4         -9.1198    1.2787   52.4634 C.ar    1  ZINC000245764166   -0.0800
      5 C5         -9.9717    2.3631   52.5595 C.ar    1  ZINC000245764166   -0.1000
      6 C6        -11.2661    2.1872   53.0116 C.ar    1  ZINC000245764166   -0.1200
      7 C7        -11.7089    0.9268   53.3670 C.ar    1  ZINC000245764166   -0.1200
      8 C8        -10.8572   -0.1578   53.2700 C.ar    1  ZINC000245764166   -0.1200
      9 C9         -9.5641    0.0175   52.8139 C.ar    1  ZINC000245764166   -0.1200
     10 C10        -6.9991    1.7332   54.2706 C.3     1  ZINC000245764166    0.0500
     11 C11        -7.2435    2.8429   55.2953 C.3     1  ZINC000245764166    0.1900
     12 C12        -6.0503    2.9279   56.2492 C.3     1  ZINC000245764166   -0.1600
     13 C13        -7.4126    4.1791   54.5696 C.3     1  ZINC000245764166   -0.1500
     14 N14        -8.4581    2.5443   56.0581 N.am    1  ZINC000245764166   -0.7400
     15 C15        -8.5777    1.3655   56.7004 C.2     1  ZINC000245764166    0.7000
     16 O16        -7.6783    0.5492   56.6457 O.2     1  ZINC000245764166   -0.5800
     17 N17        -9.6945    1.0915   57.4035 N.am    1  ZINC000245764166   -0.7500
     18 C18        -9.8252   -0.1906   58.1002 C.3     1  ZINC000245764166    0.1800
     19 H19        -8.8340   -0.5552   58.3696 H       1  ZINC000245764166    0.0900
     20 C20       -10.4971   -1.2002   57.1729 C.3     1  ZINC000245764166   -0.1300
     21 C21       -10.5723   -2.5511   57.8930 C.3     1  ZINC000245764166   -0.1100
     22 C22       -11.4627   -2.3907   59.1251 C.3     1  ZINC000245764166   -0.1100
     23 C23       -10.9187   -1.3402   60.0645 C.3     1  ZINC000245764166    0.0900
     24 H24       -11.6385   -1.1734   60.8659 H       1  ZINC000245764166    0.0600
     25 O25        -9.6563   -1.7015   60.6409 O.3     1  ZINC000245764166   -0.3600
     26 C26        -9.1084   -0.4905   61.1985 C.3     1  ZINC000245764166    0.0500
     27 C27        -9.7099    0.6908   60.4103 C.3     1  ZINC000245764166   -0.1500
     28 C28       -10.6512    0.0097   59.3727 C.3     1  ZINC000245764166   -0.1300
     29 H29       -11.5650    0.5779   59.1993 H       1  ZINC000245764166    0.1000
     30 H30        -5.5925    2.9682   51.4750 H       1  ZINC000245764166    0.0800
     31 H31        -5.0765    3.1920   53.1637 H       1  ZINC000245764166    0.0700
     32 H32        -5.0641    1.5671   52.4373 H       1  ZINC000245764166    0.0200
     33 H33        -7.7275    1.9552   50.9944 H       1  ZINC000245764166    0.0400
     34 H34        -7.2185    0.5007   51.8854 H       1  ZINC000245764166    0.1100
     35 H35        -9.6258    3.3478   52.2818 H       1  ZINC000245764166    0.1200
     36 H36       -11.9315    3.0345   53.0874 H       1  ZINC000245764166    0.1200
     37 H37       -12.7199    0.7895   53.7208 H       1  ZINC000245764166    0.1200
     38 H38       -11.2030   -1.1424   53.5480 H       1  ZINC000245764166    0.1200
     39 H39        -8.8988   -0.8298   52.7380 H       1  ZINC000245764166    0.1200
     40 H40        -7.8015    0.9981   54.3328 H       1  ZINC000245764166    0.0400
     41 H41        -6.0455    1.2488   54.4802 H       1  ZINC000245764166    0.1000
     42 H42        -5.1466    3.1501   55.6817 H       1  ZINC000245764166    0.0700
     43 H43        -6.2244    3.7184   56.9793 H       1  ZINC000245764166    0.0800
     44 H44        -5.9297    1.9759   56.7663 H       1  ZINC000245764166    0.0500
     45 H45        -8.3319    4.1607   53.9841 H       1  ZINC000245764166    0.0600
     46 H46        -7.4636    4.9858   55.3009 H       1  ZINC000245764166    0.0800
     47 H47        -6.5628    4.3427   53.9069 H       1  ZINC000245764166    0.0600
     48 H48        -9.1762    3.1950   56.1009 H       1  ZINC000245764166    0.3900
     49 H49       -10.4116    1.7431   57.4482 H       1  ZINC000245764166    0.3900
     50 H50       -11.5032   -0.8593   56.9285 H       1  ZINC000245764166    0.0600
     51 H51        -9.9114   -1.3045   56.2597 H       1  ZINC000245764166    0.0700
     52 H52       -10.9999   -3.2996   57.2259 H       1  ZINC000245764166    0.0700
     53 H53        -9.5730   -2.8599   58.1997 H       1  ZINC000245764166    0.0700
     54 H54       -12.4637   -2.1002   58.8065 H       1  ZINC000245764166    0.0800
     55 H55       -11.5195   -3.3440   59.6506 H       1  ZINC000245764166    0.0700
     56 H56        -9.3810   -0.4108   62.2509 H       1  ZINC000245764166    0.0600
     57 H57        -8.0235   -0.4919   61.0937 H       1  ZINC000245764166    0.0800
     58 H58       -10.2796    1.3421   61.0731 H       1  ZINC000245764166    0.0800
     59 H59        -8.9246    1.2518   59.9037 H       1  ZINC000245764166    0.0800
@<TRIPOS>BOND
     1     1     2    1
     2     1    30    1
     3     1    31    1
     4     1    32    1
     5     2     3    1
     6     2    10    1
     7     3     4    1
     8     3    33    1
     9     3    34    1
    10     4     9   ar
    11     4     5   ar
    12     5     6   ar
    13     5    35    1
    14     6     7   ar
    15     6    36    1
    16     7     8   ar
    17     7    37    1
    18     8     9   ar
    19     8    38    1
    20     9    39    1
    21    10    11    1
    22    10    40    1
    23    10    41    1
    24    11    12    1
    25    11    13    1
    26    11    14    1
    27    12    42    1
    28    12    43    1
    29    12    44    1
    30    13    45    1
    31    13    46    1
    32    13    47    1
    33    14    15   am
    34    14    48    1
    35    15    16    2
    36    15    17   am
    37    17    18    1
    38    17    49    1
    39    18    19    1
    40    18    28    1
    41    18    20    1
    42    20    21    1
    43    20    50    1
    44    20    51    1
    45    21    22    1
    46    21    52    1
    47    21    53    1
    48    22    23    1
    49    22    54    1
    50    22    55    1
    51    23    24    1
    52    23    28    1
    53    23    25    1
    54    25    26    1
    55    26    27    1
    56    26    56    1
    57    26    57    1
    58    27    28    1
    59    27    58    1
    60    27    59    1
    61    28    29    1
@<TRIPOS>SUBSTRUCTURE
     1 ZINC000245764166        1 TEMP              0 ****  ****    0 ROOT


##########                                Name:    ZINC000463741321
##########                DOCK_Rotatable_Bonds:                   7
##########                         Heavy_Atoms:                  26
##########                    Molecular_Weight:             354.467
##########                DOCK_Rotatable_Bonds:                   7
##########                       Formal_Charge:         -6.4075e-07
##########                     HBond_Acceptors:                   4
##########                        HBond_Donors:                   1
##########                         Heavy_Atoms:                  26
##########                          Grid_Score:          -26.749828
##########                     Grid_vdw_energy:          -26.927868
##########                      Grid_es_energy:            0.178040
##########           Internal_energy_repulsive:           10.982464

@<TRIPOS>MOLECULE
ZINC000463741321
 53 55 1 0 0
SMALL
USER_CHARGES


@<TRIPOS>ATOM
      1 C1         -5.5528    3.0506   57.0868 C.3     1  ZINC000463741321   -0.1500
      2 C2         -6.8539    3.0208   56.2821 C.3     1  ZINC000463741321   -0.1100
      3 H3         -7.0699    4.0199   55.9036 H       1  ZINC000463741321    0.1000
      4 C4         -6.7050    2.0517   55.1076 C.3     1  ZINC000463741321   -0.0900
      5 C5         -7.6062    2.5031   53.9565 C.3     1  ZINC000463741321   -0.0800
      6 C6         -8.4906    1.3590   53.5326 C.ar    1  ZINC000463741321   -0.1200
      7 C7         -9.8421    1.3875   53.8188 C.ar    1  ZINC000463741321   -0.0900
      8 C8        -10.6540    0.3379   53.4301 C.ar    1  ZINC000463741321   -0.1300
      9 C9        -10.1146   -0.7411   52.7552 C.ar    1  ZINC000463741321   -0.1000
     10 C10        -8.7629   -0.7720   52.4682 C.ar    1  ZINC000463741321   -0.1500
     11 C11        -7.9503    0.2814   52.8511 C.ar    1  ZINC000463741321    0.1000
     12 F12        -6.6289    0.2523   52.5711 F       1  ZINC000463741321   -0.1400
     13 C13        -7.9831    2.5649   57.1697 C.2     1  ZINC000463741321    0.5200
     14 O14        -8.8564    3.3439   57.4885 O.2     1  ZINC000463741321   -0.5300
     15 N15        -8.0228    1.2915   57.6093 N.am    1  ZINC000463741321   -0.7300
     16 C16        -9.1198    0.8488   58.4736 C.3     1  ZINC000463741321    0.1500
     17 H17        -9.9517    1.5483   58.3929 H       1  ZINC000463741321    0.1000
     18 C18        -9.5808   -0.5458   58.0408 C.3     1  ZINC000463741321   -0.1300
     19 C19       -10.6857   -1.0256   58.9860 C.3     1  ZINC000463741321   -0.1200
     20 C20       -10.1571   -1.0266   60.4221 C.3     1  ZINC000463741321    0.0600
     21 N21        -9.7296    0.3297   60.7886 N.3     1  ZINC000463741321   -0.4800
     22 C22        -9.3644    0.3926   62.1352 C.ar    1  ZINC000463741321    0.1100
     23 C23        -8.2989   -0.3658   62.6037 C.ar    1  ZINC000463741321   -0.1700
     24 C24        -7.9401   -0.3008   63.9357 C.ar    1  ZINC000463741321   -0.0900
     25 C25        -8.6404    0.5176   64.8029 C.ar    1  ZINC000463741321   -0.1500
     26 C26        -9.7015    1.2739   64.3399 C.ar    1  ZINC000463741321   -0.0900
     27 C27       -10.0621    1.2180   63.0079 C.ar    1  ZINC000463741321   -0.1400
     28 C28        -8.6367    0.7944   59.9247 C.3     1  ZINC000463741321    0.0500
     29 H29        -5.3368    2.0516   57.4653 H       1  ZINC000463741321    0.0600
     30 H30        -4.7361    3.3805   56.4448 H       1  ZINC000463741321    0.0700
     31 H31        -5.6588    3.7411   57.9235 H       1  ZINC000463741321    0.0600
     32 H32        -5.6673    2.0415   54.7742 H       1  ZINC000463741321    0.0700
     33 H33        -6.9946    1.0497   55.4245 H       1  ZINC000463741321    0.0700
     34 H34        -8.2248    3.3381   54.2854 H       1  ZINC000463741321    0.0800
     35 H35        -6.9898    2.8173   53.1143 H       1  ZINC000463741321    0.0800
     36 H36       -10.2645    2.2296   54.3467 H       1  ZINC000463741321    0.1300
     37 H37       -11.7102    0.3610   53.6543 H       1  ZINC000463741321    0.1300
     38 H38       -10.7497   -1.5606   52.4523 H       1  ZINC000463741321    0.1300
     39 H39        -8.3417   -1.6155   51.9414 H       1  ZINC000463741321    0.1400
     40 H40        -7.3252    0.6681   57.3534 H       1  ZINC000463741321    0.4000
     41 H41        -9.9662   -0.5022   57.0222 H       1  ZINC000463741321    0.0700
     42 H42        -8.7392   -1.2372   58.0836 H       1  ZINC000463741321    0.0600
     43 H43       -11.5425   -0.3557   58.9140 H       1  ZINC000463741321    0.0800
     44 H44       -10.9884   -2.0355   58.7089 H       1  ZINC000463741321    0.0800
     45 H45       -10.9459   -1.3542   61.0992 H       1  ZINC000463741321    0.0900
     46 H46        -9.3090   -1.7073   60.4965 H       1  ZINC000463741321    0.0500
     47 H47        -7.7521   -1.0057   61.9270 H       1  ZINC000463741321    0.1200
     48 H48        -7.1119   -0.8901   64.3006 H       1  ZINC000463741321    0.1200
     49 H49        -8.3582    0.5660   65.8443 H       1  ZINC000463741321    0.1200
     50 H50       -10.2464    1.9120   65.0199 H       1  ZINC000463741321    0.1200
     51 H51       -10.8907    1.8091   62.6468 H       1  ZINC000463741321    0.1300
     52 H52        -7.7955    0.1055   60.0010 H       1  ZINC000463741321    0.0500
     53 H53        -8.3216    1.7888   60.2410 H       1  ZINC000463741321    0.0900
@<TRIPOS>BOND
     1     1     2    1
     2     1    29    1
     3     1    30    1
     4     1    31    1
     5     2     3    1
     6     2     4    1
     7     2    13    1
     8     4     5    1
     9     4    32    1
    10     4    33    1
    11     5     6    1
    12     5    34    1
    13     5    35    1
    14     6    11   ar
    15     6     7   ar
    16     7     8   ar
    17     7    36    1
    18     8     9   ar
    19     8    37    1
    20     9    10   ar
    21     9    38    1
    22    10    11   ar
    23    10    39    1
    24    11    12    1
    25    13    14    2
    26    13    15   am
    27    15    16    1
    28    15    40    1
    29    16    17    1
    30    16    28    1
    31    16    18    1
    32    18    19    1
    33    18    41    1
    34    18    42    1
    35    19    20    1
    36    19    43    1
    37    19    44    1
    38    20    21    1
    39    20    45    1
    40    20    46    1
    41    21    22    1
    42    21    28    1
    43    22    27   ar
    44    22    23   ar
    45    23    24   ar
    46    23    47    1
    47    24    25   ar
    48    24    48    1
    49    25    26   ar
    50    25    49    1
    51    26    27   ar
    52    26    50    1
    53    27    51    1
    54    28    52    1
    55    28    53    1
@<TRIPOS>SUBSTRUCTURE
     1 ZINC000463741321        1 TEMP              0 ****  ****    0 ROOT


##########                                Name:    ZINC000504860563
##########                DOCK_Rotatable_Bonds:                   6
##########                         Heavy_Atoms:                  25
##########                    Molecular_Weight:             370.786
##########                DOCK_Rotatable_Bonds:                   6
##########                       Formal_Charge:                0.01
##########                     HBond_Acceptors:                   9
##########                        HBond_Donors:                   0
##########                         Heavy_Atoms:                  25
##########                          Grid_Score:          -26.746487
##########                     Grid_vdw_energy:          -25.656094
##########                      Grid_es_energy:           -1.090394
##########           Internal_energy_repulsive:           13.968504

@<TRIPOS>MOLECULE
ZINC000504860563
 42 44 1 0 0
SMALL
USER_CHARGES


@<TRIPOS>ATOM
      1 O1         -5.3773    5.1274   57.5757 O.2     1  ZINC000504860563   -0.5100
      2 C2         -5.6113    4.2824   56.7339 C.2     1  ZINC000504860563    0.5700
      3 C3         -4.6530    4.0510   55.6323 C.ar    1  ZINC000504860563    0.0500
      4 N4         -4.9868    4.3761   54.3883 N.ar    1  ZINC000504860563   -0.4100
      5 C5         -4.1642    4.1873   53.3811 C.ar    1  ZINC000504860563    0.0600
      6 C6         -2.9059    3.6372   53.5777 C.ar    1  ZINC000504860563   -0.1000
      7 C7         -2.5112    3.2818   54.8551 C.ar    1  ZINC000504860563   -0.1700
      8 C8         -3.3982    3.4965   55.9075 C.ar    1  ZINC000504860563    0.1400
      9 O9         -3.0550    3.1642   57.1771 O.3     1  ZINC000504860563   -0.2600
     10 C10        -1.7917    2.5222   57.3607 C.3     1  ZINC000504860563   -0.0100
     11 C11        -1.5768    2.2349   58.8480 C.3     1  ZINC000504860563    0.2800
     12 F12        -0.3325    1.6215   59.0295 F       1  ZINC000504860563   -0.1900
     13 F13        -1.6138    3.4357   59.5650 F       1  ZINC000504860563   -0.1900
     14 N14        -6.7419    3.5524   56.8080 N.am    1  ZINC000504860563   -0.6000
     15 C15        -7.0330    2.5191   55.8049 C.3     1  ZINC000504860563    0.0800
     16 C16        -7.3144    1.1972   56.5260 C.3     1  ZINC000504860563   -0.1500
     17 C17        -8.4295    1.4082   57.5527 C.3     1  ZINC000504860563    0.1600
     18 N18        -8.7242    0.1384   58.2212 N.pl3   1  ZINC000504860563   -0.3600
     19 C19        -9.8884   -0.5427   58.1554 C.2     1  ZINC000504860563    0.0700
     20 C20        -9.7555   -1.6600   58.9080 C.2     1  ZINC000504860563   -0.1900
     21 Cl21      -10.9695   -2.8763   59.1543 Cl      1  ZINC000504860563   -0.0400
     22 C22        -8.4662   -1.6616   59.4520 C.2     1  ZINC000504860563    0.0600
     23 N23        -7.8459   -0.5869   59.0367 N.2     1  ZINC000504860563   -0.2800
     24 C24        -7.9807    2.4390   58.5912 C.3     1  ZINC000504860563   -0.1400
     25 C25        -7.7039    3.7707   57.8969 C.3     1  ZINC000504860563    0.1200
     26 H26        -4.4728    4.4645   52.3840 H       1  ZINC000504860563    0.1700
     27 H27        -2.2403    3.4873   52.7406 H       1  ZINC000504860563    0.1500
     28 H28        -1.5365    2.8519   55.0328 H       1  ZINC000504860563    0.1500
     29 H29        -1.7759    1.5852   56.8037 H       1  ZINC000504860563    0.1000
     30 H30        -0.9967    3.1738   56.9979 H       1  ZINC000504860563    0.1000
     31 H31        -2.3642    1.5726   59.2076 H       1  ZINC000504860563    0.1300
     32 H32        -7.9069    2.8110   55.2226 H       1  ZINC000504860563    0.0700
     33 H33        -6.1745    2.3993   55.1440 H       1  ZINC000504860563    0.1600
     34 H34        -7.6256    0.4459   55.8001 H       1  ZINC000504860563    0.0900
     35 H35        -6.4109    0.8604   57.0343 H       1  ZINC000504860563    0.0700
     36 H36        -9.3253    1.7688   57.0470 H       1  ZINC000504860563    0.1100
     37 H37       -10.7680   -0.2484   57.6022 H       1  ZINC000504860563    0.1800
     38 H38        -8.0532   -2.4206   60.0998 H       1  ZINC000504860563    0.1900
     39 H39        -8.7662    2.5714   59.3352 H       1  ZINC000504860563    0.0900
     40 H40        -7.0710    2.0905   59.0799 H       1  ZINC000504860563    0.0800
     41 H41        -7.2902    4.4783   58.6153 H       1  ZINC000504860563    0.1000
     42 H42        -8.6313    4.1670   57.4833 H       1  ZINC000504860563    0.0800
@<TRIPOS>BOND
     1     1     2    2
     2     2     3    1
     3     2    14   am
     4     3     8   ar
     5     3     4   ar
     6     4     5   ar
     7     5     6   ar
     8     5    26    1
     9     6     7   ar
    10     6    27    1
    11     7     8   ar
    12     7    28    1
    13     8     9    1
    14     9    10    1
    15    10    11    1
    16    10    29    1
    17    10    30    1
    18    11    12    1
    19    11    13    1
    20    11    31    1
    21    14    25    1
    22    14    15    1
    23    15    16    1
    24    15    32    1
    25    15    33    1
    26    16    17    1
    27    16    34    1
    28    16    35    1
    29    17    18    1
    30    17    24    1
    31    17    36    1
    32    18    23    1
    33    18    19    1
    34    19    20    2
    35    19    37    1
    36    20    21    1
    37    20    22    1
    38    22    23    2
    39    22    38    1
    40    24    25    1
    41    24    39    1
    42    24    40    1
    43    25    41    1
    44    25    42    1
@<TRIPOS>SUBSTRUCTURE
     1 ZINC000504860563        1 TEMP              0 ****  ****    0 ROOT


##########                                Name:    ZINC000560467340
##########                DOCK_Rotatable_Bonds:                   7
##########                         Heavy_Atoms:                  24
##########                    Molecular_Weight:             369.481
##########                DOCK_Rotatable_Bonds:                   7
##########                       Formal_Charge:          -0.0199997
##########                     HBond_Acceptors:                   7
##########                        HBond_Donors:                   2
##########                         Heavy_Atoms:                  24
##########                          Grid_Score:          -26.696566
##########                     Grid_vdw_energy:          -25.289682
##########                      Grid_es_energy:           -1.406883
##########           Internal_energy_repulsive:           23.208757

@<TRIPOS>MOLECULE
ZINC000560467340
 44 46 1 0 0
SMALL
USER_CHARGES


@<TRIPOS>ATOM
      1 O1         -9.1470    2.1895   56.7634 O.2     1  ZINC000560467340   -0.9600
      2 S2         -8.1950    1.1381   56.6777 S.o2    1  ZINC000560467340    2.7100
      3 O3         -6.9205    1.1905   57.3038 O.2     1  ZINC000560467340   -0.9500
      4 N4         -8.9450   -0.2201   57.2567 N.am    1  ZINC000560467340   -1.0900
      5 C5         -9.3244   -0.3016   58.6693 C.3     1  ZINC000560467340    0.1400
      6 C6        -10.4029   -1.3721   58.8469 C.3     1  ZINC000560467340   -0.0500
      7 C7        -10.6114   -1.6639   60.3342 C.3     1  ZINC000560467340   -0.0700
      8 C8        -10.7080   -0.3649   61.0922 C.ar    1  ZINC000560467340   -0.0900
      9 C9        -11.9380    0.2398   61.2726 C.ar    1  ZINC000560467340   -0.0900
     10 C10       -12.0277    1.4310   61.9675 C.ar    1  ZINC000560467340   -0.1500
     11 C11       -10.8851    2.0185   62.4835 C.ar    1  ZINC000560467340    0.1000
     12 F12       -10.9717    3.1827   63.1635 F       1  ZINC000560467340   -0.1400
     13 C13        -9.6538    1.4117   62.3027 C.ar    1  ZINC000560467340   -0.1500
     14 C14        -9.5671    0.2181   61.6115 C.ar    1  ZINC000560467340   -0.0900
     15 C15        -9.9940   -2.6622   58.1065 C.3     1  ZINC000560467340   -0.1300
     16 C16       -11.3250   -3.2099   57.5343 C.3     1  ZINC000560467340   -0.1200
     17 C17       -12.0702   -1.9207   57.1082 C.3     1  ZINC000560467340   -0.1600
     18 C18       -11.7230   -0.9007   58.2121 C.3     1  ZINC000560467340    0.1100
     19 H19       -12.5123   -0.8806   58.9636 H       1  ZINC000560467340    0.0600
     20 O20       -11.5566    0.3994   57.6427 O.3     1  ZINC000560467340   -0.5500
     21 C21        -7.8956    0.8768   54.9611 C.2     1  ZINC000560467340   -0.6900
     22 C22        -6.8881    1.4616   54.3113 C.2     1  ZINC000560467340   -0.1000
     23 S23        -6.9071    0.9654   52.6241 S.3     1  ZINC000560467340    0.1500
     24 C24        -8.3241   -0.0382   52.9042 C.2     1  ZINC000560467340   -0.2200
     25 C25        -8.6845    0.0445   54.1858 C.2     1  ZINC000560467340   -0.0700
     26 H26        -9.1331   -0.9617   56.6605 H       1  ZINC000560467340    0.4200
     27 H27        -8.4505   -0.5638   59.2657 H       1  ZINC000560467340    0.0600
     28 H28        -9.7121    0.6628   58.9976 H       1  ZINC000560467340    0.0800
     29 H29       -11.5322   -2.2317   60.4676 H       1  ZINC000560467340    0.0800
     30 H30        -9.7692   -2.2433   60.7123 H       1  ZINC000560467340    0.0800
     31 H31       -12.8290   -0.2187   60.8699 H       1  ZINC000560467340    0.1300
     32 H32       -12.9886    1.9035   62.1076 H       1  ZINC000560467340    0.1400
     33 H33        -8.7618    1.8693   62.7045 H       1  ZINC000560467340    0.1400
     34 H34        -8.6067   -0.2556   61.4706 H       1  ZINC000560467340    0.1300
     35 H35        -9.2971   -2.4345   57.2998 H       1  ZINC000560467340    0.0700
     36 H36        -9.5542   -3.3777   58.8012 H       1  ZINC000560467340    0.0800
     37 H37       -11.1401   -3.8519   56.6730 H       1  ZINC000560467340    0.0700
     38 H38       -11.8849   -3.7438   58.3021 H       1  ZINC000560467340    0.0700
     39 H39       -11.7086   -1.5733   56.1404 H       1  ZINC000560467340    0.0800
     40 H40       -13.1456   -2.0951   57.0745 H       1  ZINC000560467340    0.0700
     41 H41       -10.8457    0.9169   58.0448 H       1  ZINC000560467340    0.3800
     42 H42        -6.1706    2.1370   54.7536 H       1  ZINC000560467340    0.1800
     43 H43        -8.8232   -0.6339   52.1543 H       1  ZINC000560467340    0.1700
     44 H44        -9.5325   -0.4910   54.5865 H       1  ZINC000560467340    0.1500
@<TRIPOS>BOND
     1     1     2    2
     2     2     3    2
     3     2     4   am
     4     2    21    1
     5     4     5    1
     6     4    26    1
     7     5     6    1
     8     5    27    1
     9     5    28    1
    10     6    18    1
    11     6     7    1
    12     6    15    1
    13     7     8    1
    14     7    29    1
    15     7    30    1
    16     8    14   ar
    17     8     9   ar
    18     9    10   ar
    19     9    31    1
    20    10    11   ar
    21    10    32    1
    22    11    12    1
    23    11    13   ar
    24    13    14   ar
    25    13    33    1
    26    14    34    1
    27    15    16    1
    28    15    35    1
    29    15    36    1
    30    16    17    1
    31    16    37    1
    32    16    38    1
    33    17    18    1
    34    17    39    1
    35    17    40    1
    36    18    19    1
    37    18    20    1
    38    20    41    1
    39    21    25    1
    40    21    22    2
    41    22    23    1
    42    22    42    1
    43    23    24    1
    44    24    25    2
    45    24    43    1
    46    25    44    1
@<TRIPOS>SUBSTRUCTURE
     1 ZINC000560467340        1 TEMP              0 ****  ****    0 ROOT


##########                                Name:    ZINC000002634904
##########                DOCK_Rotatable_Bonds:                   7
##########                         Heavy_Atoms:                  31
##########                    Molecular_Weight:             423.498
##########                DOCK_Rotatable_Bonds:                   7
##########                       Formal_Charge:        -7.45058e-08
##########                     HBond_Acceptors:                   7
##########                        HBond_Donors:                   1
##########                         Heavy_Atoms:                  31
##########                          Grid_Score:          -26.634615
##########                     Grid_vdw_energy:          -26.308264
##########                      Grid_es_energy:           -0.326352
##########           Internal_energy_repulsive:          168.543793

@<TRIPOS>MOLECULE
ZINC000002634904
 48 51 1 0 0
SMALL
USER_CHARGES


@<TRIPOS>ATOM
      1 N1         -1.3918    6.0826   57.2617 N.1     1  ZINC000002634904   -0.4100
      2 C2         -2.0630    5.5446   56.5198 C.1     1  ZINC000002634904    0.2500
      3 C3         -2.9092    4.8663   55.5846 C.ar    1  ZINC000002634904   -0.0400
      4 C4         -4.2783    4.7450   55.8386 C.ar    1  ZINC000002634904   -0.0500
      5 C5         -5.0889    4.0922   54.9371 C.ar    1  ZINC000002634904   -0.1400
      6 C6         -4.5467    3.5537   53.7747 C.ar    1  ZINC000002634904    0.1700
      7 N7         -5.3713    2.8928   52.8634 N.am    1  ZINC000002634904   -0.6700
      8 C8         -6.6910    2.7759   53.1104 C.2     1  ZINC000002634904    0.5400
      9 O9         -7.1620    3.2450   54.1248 O.2     1  ZINC000002634904   -0.5000
     10 C10        -7.5816    2.0622   52.1262 C.3     1  ZINC000002634904   -0.1700
     11 S11        -7.3444    0.2747   52.2839 S.3     1  ZINC000002634904    0.1300
     12 C12        -8.6255   -0.1038   53.4329 C.ar    1  ZINC000002634904    0.2100
     13 N13        -9.6972   -0.7714   53.0204 N.ar    1  ZINC000002634904   -0.2900
     14 N14       -10.6571   -1.0697   53.8241 N.ar    1  ZINC000002634904   -0.1600
     15 C15       -10.6002   -0.7130   55.1028 C.ar    1  ZINC000002634904    0.0600
     16 C16       -11.7041   -1.0558   56.0296 C.ar    1  ZINC000002634904   -0.0500
     17 C17       -12.6466   -0.0907   56.3830 C.ar    1  ZINC000002634904   -0.0800
     18 C18       -13.6725   -0.4160   57.2467 C.ar    1  ZINC000002634904   -0.1200
     19 C19       -13.7668   -1.6964   57.7619 C.ar    1  ZINC000002634904   -0.1000
     20 C20       -12.8348   -2.6580   57.4151 C.ar    1  ZINC000002634904   -0.1200
     21 C21       -11.8080   -2.3464   56.5474 C.ar    1  ZINC000002634904   -0.0800
     22 C22        -9.4728   -0.0037   55.5637 C.ar    1  ZINC000002634904    0.2300
     23 C23        -9.3680    0.4137   56.9813 C.ar    1  ZINC000002634904   -0.0700
     24 C24        -9.1429   -0.5370   57.9763 C.ar    1  ZINC000002634904   -0.0700
     25 C25        -9.0457   -0.1422   59.2948 C.ar    1  ZINC000002634904   -0.1200
     26 C26        -9.1711    1.1940   59.6306 C.ar    1  ZINC000002634904   -0.0900
     27 C27        -9.3949    2.1419   58.6482 C.ar    1  ZINC000002634904   -0.1200
     28 C28        -9.4881    1.7598   57.3254 C.ar    1  ZINC000002634904   -0.0700
     29 N29        -8.5020    0.2780   54.6978 N.ar    1  ZINC000002634904   -0.4400
     30 C30        -3.1847    3.6728   53.5184 C.ar    1  ZINC000002634904   -0.1200
     31 C31        -2.3689    4.3290   54.4128 C.ar    1  ZINC000002634904   -0.0500
     32 H32        -4.6998    5.1625   56.7411 H       1  ZINC000002634904    0.1400
     33 H33        -6.1468    3.9977   55.1329 H       1  ZINC000002634904    0.1400
     34 H34        -4.9947    2.5177   52.0520 H       1  ZINC000002634904    0.4200
     35 H35        -8.6228    2.3101   52.3322 H       1  ZINC000002634904    0.1300
     36 H36        -7.3273    2.3744   51.1133 H       1  ZINC000002634904    0.1300
     37 H37       -12.5736    0.9093   55.9819 H       1  ZINC000002634904    0.1300
     38 H38       -14.4030    0.3305   57.5210 H       1  ZINC000002634904    0.1300
     39 H39       -14.5712   -1.9461   58.4381 H       1  ZINC000002634904    0.1300
     40 H40       -12.9136   -3.6559   57.8205 H       1  ZINC000002634904    0.1300
     41 H41       -11.0812   -3.0981   56.2770 H       1  ZINC000002634904    0.1200
     42 H42        -9.0452   -1.5806   57.7153 H       1  ZINC000002634904    0.1300
     43 H43        -8.8718   -0.8777   60.0662 H       1  ZINC000002634904    0.1300
     44 H44        -9.0942    1.4983   60.6640 H       1  ZINC000002634904    0.1300
     45 H45        -9.4922    3.1835   58.9164 H       1  ZINC000002634904    0.1300
     46 H46        -9.6629    2.5007   56.5593 H       1  ZINC000002634904    0.1300
     47 H47        -2.7674    3.2538   52.6147 H       1  ZINC000002634904    0.1500
     48 H48        -1.3116    4.4215   54.2129 H       1  ZINC000002634904    0.1400
@<TRIPOS>BOND
     1     1     2    3
     2     2     3    1
     3     3    31   ar
     4     3     4   ar
     5     4     5   ar
     6     4    32    1
     7     5     6   ar
     8     5    33    1
     9     6     7    1
    10     6    30   ar
    11     7     8   am
    12     7    34    1
    13     8     9    2
    14     8    10    1
    15    10    11    1
    16    10    35    1
    17    10    36    1
    18    11    12    1
    19    12    29   ar
    20    12    13   ar
    21    13    14   ar
    22    14    15   ar
    23    15    16    1
    24    15    22   ar
    25    16    21   ar
    26    16    17   ar
    27    17    18   ar
    28    17    37    1
    29    18    19   ar
    30    18    38    1
    31    19    20   ar
    32    19    39    1
    33    20    21   ar
    34    20    40    1
    35    21    41    1
    36    22    23    1
    37    22    29   ar
    38    23    28   ar
    39    23    24   ar
    40    24    25   ar
    41    24    42    1
    42    25    26   ar
    43    25    43    1
    44    26    27   ar
    45    26    44    1
    46    27    28   ar
    47    27    45    1
    48    28    46    1
    49    30    31   ar
    50    30    47    1
    51    31    48    1
@<TRIPOS>SUBSTRUCTURE
     1 ZINC000002634904        1 TEMP              0 ****  ****    0 ROOT


##########                                Name:    ZINC000430767928
##########                DOCK_Rotatable_Bonds:                   4
##########                         Heavy_Atoms:                  25
##########                    Molecular_Weight:             358.505
##########                DOCK_Rotatable_Bonds:                   4
##########                       Formal_Charge:          -0.0100002
##########                     HBond_Acceptors:                   5
##########                        HBond_Donors:                   0
##########                         Heavy_Atoms:                  25
##########                          Grid_Score:          -26.634573
##########                     Grid_vdw_energy:          -26.242191
##########                      Grid_es_energy:           -0.392382
##########           Internal_energy_repulsive:           28.374775

@<TRIPOS>MOLECULE
ZINC000430767928
 51 55 1 0 0
SMALL
USER_CHARGES


@<TRIPOS>ATOM
      1 O1        -10.2211   -2.2491   56.4861 O.2     1  ZINC000430767928   -0.4600
      2 C2        -10.7009   -1.1774   56.1844 C.2     1  ZINC000430767928    0.5300
      3 C3        -10.8357   -0.5912   54.7997 C.3     1  ZINC000430767928    0.0400
      4 H4        -11.5927   -1.0953   54.1991 H       1  ZINC000430767928    0.1400
      5 C5         -9.4703   -0.4995   54.0878 C.3     1  ZINC000430767928   -0.1100
      6 C6         -9.6437    0.7579   53.1980 C.3     1  ZINC000430767928   -0.1000
      7 H7         -9.9281    0.4699   52.1860 H       1  ZINC000430767928    0.1000
      8 C8         -8.3504    1.5752   53.1740 C.3     1  ZINC000430767928   -0.0800
      9 C9         -7.2494    0.7677   52.4837 C.3     1  ZINC000430767928   -0.1100
     10 C10        -5.9562    1.5851   52.4597 C.3     1  ZINC000430767928   -0.1200
     11 C11        -6.1905    2.8879   51.6923 C.3     1  ZINC000430767928   -0.1200
     12 C12        -7.2916    3.6954   52.3826 C.3     1  ZINC000430767928   -0.1200
     13 C13        -8.5847    2.8780   52.4066 C.3     1  ZINC000430767928   -0.1200
     14 C14       -10.7787    1.5635   53.8665 C.3     1  ZINC000430767928    0.1600
     15 N15       -11.1661    0.8334   55.0852 N.am    1  ZINC000430767928   -0.6400
     16 C16       -11.6221    0.8505   56.3417 C.2     1  ZINC000430767928    0.7400
     17 O17       -12.2826    1.7533   56.8170 O.2     1  ZINC000430767928   -0.5100
     18 N18       -11.2347   -0.2547   57.0153 N.am    1  ZINC000430767928   -0.5800
     19 C19       -11.3684   -0.4290   58.4637 C.3     1  ZINC000430767928    0.2600
     20 H20       -11.6355    0.5236   58.9212 H       1  ZINC000430767928    0.1200
     21 C21       -12.4453   -1.4434   58.7503 C.2     1  ZINC000430767928   -0.2100
     22 C22       -13.1945   -1.4787   59.8533 C.2     1  ZINC000430767928   -0.1200
     23 C23       -14.1230   -2.5046   59.8952 C.2     1  ZINC000430767928   -0.1400
     24 C24       -14.1276   -3.3024   58.8262 C.2     1  ZINC000430767928   -0.2300
     25 S25       -12.9117   -2.7575   57.6782 S.3     1  ZINC000430767928    0.1700
     26 C26       -10.0396   -0.9183   59.0433 C.3     1  ZINC000430767928   -0.1700
     27 C27       -10.0462   -1.4421   60.4809 C.3     1  ZINC000430767928   -0.1700
     28 C28        -9.8955   -2.4177   59.3118 C.3     1  ZINC000430767928   -0.1600
     29 H29        -8.6659   -0.3559   54.8093 H       1  ZINC000430767928    0.0800
     30 H30        -9.2913   -1.3847   53.4773 H       1  ZINC000430767928    0.1000
     31 H31        -8.0467    1.8048   54.1953 H       1  ZINC000430767928    0.0700
     32 H32        -7.0825   -0.1604   53.0304 H       1  ZINC000430767928    0.0600
     33 H33        -7.5532    0.5382   51.4623 H       1  ZINC000430767928    0.0700
     34 H34        -5.6525    1.8146   53.4811 H       1  ZINC000430767928    0.0600
     35 H35        -5.1719    1.0098   51.9679 H       1  ZINC000430767928    0.0600
     36 H36        -5.2694    3.4702   51.6752 H       1  ZINC000430767928    0.0600
     37 H37        -6.4944    2.6584   50.6710 H       1  ZINC000430767928    0.0600
     38 H38        -6.9879    3.9249   53.4040 H       1  ZINC000430767928    0.0600
     39 H39        -7.4586    4.6235   51.8360 H       1  ZINC000430767928    0.0600
     40 H40        -8.8886    2.6485   51.3853 H       1  ZINC000430767928    0.0700
     41 H41        -9.3691    3.4533   52.8985 H       1  ZINC000430767928    0.0600
     42 H42       -10.4273    2.5637   54.1198 H       1  ZINC000430767928    0.0900
     43 H43       -11.6359    1.6271   53.1963 H       1  ZINC000430767928    0.0800
     44 H44       -13.0850   -0.7614   60.6532 H       1  ZINC000430767928    0.1400
     45 H45       -14.7925   -2.6483   60.7303 H       1  ZINC000430767928    0.1400
     46 H46       -14.7807   -4.1511   58.6856 H       1  ZINC000430767928    0.1600
     47 H47        -9.1535   -0.3797   58.7076 H       1  ZINC000430767928    0.1200
     48 H48        -9.1642   -1.2481   61.0913 H       1  ZINC000430767928    0.1000
     49 H49       -10.9970   -1.4381   61.0137 H       1  ZINC000430767928    0.1000
     50 H50       -10.7473   -3.0555   59.0756 H       1  ZINC000430767928    0.1000
     51 H51        -8.9144   -2.8654   59.1532 H       1  ZINC000430767928    0.1000
@<TRIPOS>BOND
     1     1     2    2
     2     2    18   am
     3     2     3    1
     4     3     4    1
     5     3    15    1
     6     3     5    1
     7     5     6    1
     8     5    29    1
     9     5    30    1
    10     6     7    1
    11     6     8    1
    12     6    14    1
    13     8    13    1
    14     8     9    1
    15     8    31    1
    16     9    10    1
    17     9    32    1
    18     9    33    1
    19    10    11    1
    20    10    34    1
    21    10    35    1
    22    11    12    1
    23    11    36    1
    24    11    37    1
    25    12    13    1
    26    12    38    1
    27    12    39    1
    28    13    40    1
    29    13    41    1
    30    14    15    1
    31    14    42    1
    32    14    43    1
    33    15    16   am
    34    16    17    2
    35    16    18   am
    36    18    19    1
    37    19    20    1
    38    19    21    1
    39    19    26    1
    40    21    25    1
    41    21    22    2
    42    22    23    1
    43    22    44    1
    44    23    24    2
    45    23    45    1
    46    24    25    1
    47    24    46    1
    48    26    28    1
    49    26    27    1
    50    26    47    1
    51    27    28    1
    52    27    48    1
    53    27    49    1
    54    28    50    1
    55    28    51    1
@<TRIPOS>SUBSTRUCTURE
     1 ZINC000430767928        1 TEMP              0 ****  ****    0 ROOT


##########                                Name:    ZINC000326056918
##########                DOCK_Rotatable_Bonds:                   6
##########                         Heavy_Atoms:                  24
##########                    Molecular_Weight:             408.326
##########                DOCK_Rotatable_Bonds:                   6
##########                       Formal_Charge:         -0.00999978
##########                     HBond_Acceptors:                   9
##########                        HBond_Donors:                   0
##########                         Heavy_Atoms:                  24
##########                          Grid_Score:          -26.609663
##########                     Grid_vdw_energy:          -24.215481
##########                      Grid_es_energy:           -2.394181
##########           Internal_energy_repulsive:           25.243368

@<TRIPOS>MOLECULE
ZINC000326056918
 39 40 1 0 0
SMALL
USER_CHARGES


@<TRIPOS>ATOM
      1 C1        -13.6636    2.7276   60.5964 C.3     1  ZINC000326056918    0.0400
      2 O2        -14.3511    1.4598   60.7651 O.3     1  ZINC000326056918   -0.3500
      3 C3        -13.7157    0.5093   61.4810 C.2     1  ZINC000326056918    0.5000
      4 O4        -14.3081   -0.4999   61.8127 O.2     1  ZINC000326056918   -0.4300
      5 C5        -12.3133    0.6924   61.8589 C.2     1  ZINC000326056918   -0.1600
      6 C6        -11.2502    0.0331   61.3066 C.2     1  ZINC000326056918   -0.6200
      7 S7        -11.4130   -1.1653   60.0251 S.o2    1  ZINC000326056918    2.6900
      8 O8        -10.9666   -2.3992   60.5706 O.2     1  ZINC000326056918   -0.9100
      9 O9        -12.7081   -0.9847   59.4690 O.2     1  ZINC000326056918   -0.9400
     10 N10       -10.3330   -0.7617   58.8364 N.am    1  ZINC000326056918   -0.9900
     11 C11        -9.2794   -1.7045   58.4530 C.3     1  ZINC000326056918    0.0900
     12 C12       -10.4313    0.5384   58.1681 C.3     1  ZINC000326056918    0.1500
     13 C13        -9.8101    0.4472   56.7982 C.ar    1  ZINC000326056918   -0.0900
     14 C14       -10.5192   -0.1158   55.7542 C.ar    1  ZINC000326056918   -0.0800
     15 C15        -9.9499   -0.2002   54.4973 C.ar    1  ZINC000326056918   -0.1100
     16 C16        -8.6699    0.2792   54.2838 C.ar    1  ZINC000326056918   -0.0200
     17 Cl17       -7.9553    0.1736   52.7053 Cl      1  ZINC000326056918   -0.0600
     18 C18        -7.9597    0.8434   55.3285 C.ar    1  ZINC000326056918   -0.1100
     19 C19        -8.5318    0.9323   56.5845 C.ar    1  ZINC000326056918   -0.0300
     20 Cl20       -7.6416    1.6405   57.8960 Cl      1  ZINC000326056918   -0.0100
     21 C21       -10.0422    0.3989   61.8500 C.2     1  ZINC000326056918   -0.0400
     22 C22        -8.7363   -0.1989   61.3936 C.3     1  ZINC000326056918   -0.1100
     23 C23       -10.1101    1.3252   62.8139 C.2     1  ZINC000326056918   -0.2600
     24 S24       -11.7250    1.8010   63.0905 S.3     1  ZINC000326056918    0.3100
     25 H25       -14.2827    3.4004   60.0029 H       1  ZINC000326056918    0.1100
     26 H26       -13.4770    3.1727   61.5736 H       1  ZINC000326056918    0.0700
     27 H27       -12.7150    2.5614   60.0857 H       1  ZINC000326056918    0.0700
     28 H28        -9.6703   -2.4063   57.7162 H       1  ZINC000326056918    0.0600
     29 H29        -8.4404   -1.1569   58.0238 H       1  ZINC000326056918    0.0700
     30 H30        -8.9436   -2.2520   59.3338 H       1  ZINC000326056918    0.0900
     31 H31       -11.4801    0.8199   58.0734 H       1  ZINC000326056918    0.1100
     32 H32        -9.9051    1.2900   58.7565 H       1  ZINC000326056918    0.0900
     33 H33       -11.5186   -0.4902   55.9204 H       1  ZINC000326056918    0.1400
     34 H34       -10.5043   -0.6409   53.6819 H       1  ZINC000326056918    0.1400
     35 H35        -6.9603    1.2178   55.1623 H       1  ZINC000326056918    0.1500
     36 H36        -8.3876    0.3259   60.5041 H       1  ZINC000326056918    0.0900
     37 H37        -7.9952   -0.1014   62.1870 H       1  ZINC000326056918    0.0700
     38 H38        -8.8815   -1.2536   61.1596 H       1  ZINC000326056918    0.0900
     39 H39        -9.2561    1.7213   63.3432 H       1  ZINC000326056918    0.1800
@<TRIPOS>BOND
     1     1     2    1
     2     1    25    1
     3     1    26    1
     4     1    27    1
     5     2     3    1
     6     3     4    2
     7     3     5    1
     8     5    24    1
     9     5     6    2
    10     6     7    1
    11     6    21    1
    12     7     8    2
    13     7     9    2
    14     7    10   am
    15    10    11    1
    16    10    12    1
    17    11    28    1
    18    11    29    1
    19    11    30    1
    20    12    13    1
    21    12    31    1
    22    12    32    1
    23    13    19   ar
    24    13    14   ar
    25    14    15   ar
    26    14    33    1
    27    15    16   ar
    28    15    34    1
    29    16    17    1
    30    16    18   ar
    31    18    19   ar
    32    18    35    1
    33    19    20    1
    34    21    22    1
    35    21    23    2
    36    22    36    1
    37    22    37    1
    38    22    38    1
    39    23    24    1
    40    23    39    1
@<TRIPOS>SUBSTRUCTURE
     1 ZINC000326056918        1 TEMP              0 ****  ****    0 ROOT


##########                                Name:    ZINC000028372981
##########                DOCK_Rotatable_Bonds:                   7
##########                         Heavy_Atoms:                  28
##########                    Molecular_Weight:             380.443
##########                DOCK_Rotatable_Bonds:                   7
##########                       Formal_Charge:         1.78814e-07
##########                     HBond_Acceptors:                   6
##########                        HBond_Donors:                   1
##########                         Heavy_Atoms:                  28
##########                          Grid_Score:          -26.584330
##########                     Grid_vdw_energy:          -25.641148
##########                      Grid_es_energy:           -0.943182
##########           Internal_energy_repulsive:          169.305069

@<TRIPOS>MOLECULE
ZINC000028372981
 52 54 1 0 0
SMALL
USER_CHARGES


@<TRIPOS>ATOM
      1 C1         -7.4554    0.9091   52.5031 C.3     1  ZINC000028372981   -0.1800
      2 C2         -8.4475    0.1290   53.3266 C.2     1  ZINC000028372981    0.5200
      3 O3         -9.2230   -0.6291   52.7838 O.2     1  ZINC000028372981   -0.5100
      4 N4         -8.4730    0.2739   54.6663 N.am    1  ZINC000028372981   -0.5500
      5 C5         -7.5876    1.1555   55.4314 C.3     1  ZINC000028372981    0.1000
      6 C6         -8.0032    0.9695   56.8998 C.3     1  ZINC000028372981   -0.0900
      7 C7         -9.1305   -0.0376   56.8499 C.ar    1  ZINC000028372981   -0.1500
      8 C8         -9.8951   -0.5844   57.8559 C.ar    1  ZINC000028372981    0.0000
      9 C9        -10.8918   -1.5154   57.5496 C.ar    1  ZINC000028372981   -0.1600
     10 C10       -11.7102   -2.1080   58.6236 C.2     1  ZINC000028372981    0.5200
     11 O11       -11.3089   -2.0953   59.7705 O.2     1  ZINC000028372981   -0.5000
     12 O12       -12.9029   -2.6636   58.3334 O.3     1  ZINC000028372981   -0.3200
     13 C13       -13.9099   -2.6472   59.3793 C.3     1  ZINC000028372981    0.0700
     14 H14       -13.4769   -3.0228   60.3064 H       1  ZINC000028372981    0.1200
     15 C15       -15.0860   -3.5357   58.9690 C.3     1  ZINC000028372981   -0.1700
     16 C16       -14.3952   -1.2356   59.5873 C.2     1  ZINC000028372981    0.5200
     17 O17       -14.7871   -0.8840   60.6797 O.2     1  ZINC000028372981   -0.4900
     18 N18       -14.3935   -0.3641   58.5592 N.am    1  ZINC000028372981   -0.6600
     19 C19       -14.8441    0.9464   58.7523 C.ar    1  ZINC000028372981    0.1500
     20 C20       -15.2943    1.3503   60.0022 C.ar    1  ZINC000028372981   -0.1300
     21 C21       -15.7380    2.6449   60.1897 C.ar    1  ZINC000028372981   -0.1000
     22 C22       -15.7337    3.5384   59.1345 C.ar    1  ZINC000028372981   -0.1300
     23 C23       -15.2855    3.1394   57.8884 C.ar    1  ZINC000028372981   -0.0700
     24 C24       -15.2820    4.1166   56.7413 C.3     1  ZINC000028372981   -0.1200
     25 C25       -14.8415    1.8463   57.6942 C.ar    1  ZINC000028372981   -0.1200
     26 C26       -14.3542    1.4120   56.3359 C.3     1  ZINC000028372981   -0.1200
     27 C27       -11.1109   -1.8762   56.2169 C.ar    1  ZINC000028372981   -0.0200
     28 C28       -10.3468   -1.3215   55.2190 C.ar    1  ZINC000028372981   -0.1800
     29 C29        -9.3451   -0.3935   55.5243 C.ar    1  ZINC000028372981    0.1900
     30 H30        -6.4430    0.6527   52.8149 H       1  ZINC000028372981    0.1000
     31 H31        -7.5845    0.6625   51.4492 H       1  ZINC000028372981    0.1000
     32 H32        -7.6213    1.9764   52.6495 H       1  ZINC000028372981    0.1000
     33 H33        -6.5477    0.8598   55.2925 H       1  ZINC000028372981    0.0900
     34 H34        -7.7306    2.1921   55.1263 H       1  ZINC000028372981    0.0900
     35 H35        -7.1701    0.5794   57.4845 H       1  ZINC000028372981    0.1000
     36 H36        -8.3521    1.9134   57.3188 H       1  ZINC000028372981    0.1000
     37 H37        -9.7220   -0.2971   58.8824 H       1  ZINC000028372981    0.1400
     38 H38       -15.5190   -3.1600   58.0419 H       1  ZINC000028372981    0.0800
     39 H39       -14.7350   -4.5566   58.8186 H       1  ZINC000028372981    0.0800
     40 H40       -15.8419   -3.5233   59.7542 H       1  ZINC000028372981    0.0800
     41 H41       -14.0801   -0.6455   57.6854 H       1  ZINC000028372981    0.4100
     42 H42       -15.2933    0.6542   60.8280 H       1  ZINC000028372981    0.1400
     43 H43       -16.0882    2.9596   61.1616 H       1  ZINC000028372981    0.1300
     44 H44       -16.0808    4.5502   59.2837 H       1  ZINC000028372981    0.1200
     45 H45       -14.3277    4.6425   56.7148 H       1  ZINC000028372981    0.0700
     46 H46       -15.4263    3.5780   55.8047 H       1  ZINC000028372981    0.0700
     47 H47       -16.0898    4.8363   56.8746 H       1  ZINC000028372981    0.0700
     48 H48       -13.2829    1.5974   56.2579 H       1  ZINC000028372981    0.0700
     49 H49       -14.5495    0.3479   56.2029 H       1  ZINC000028372981    0.0600
     50 H50       -14.8778    1.9767   55.5645 H       1  ZINC000028372981    0.0800
     51 H51       -11.8820   -2.5914   55.9716 H       1  ZINC000028372981    0.1500
     52 H52       -10.5202   -1.6042   54.1911 H       1  ZINC000028372981    0.1500
@<TRIPOS>BOND
     1     1     2    1
     2     1    30    1
     3     1    31    1
     4     1    32    1
     5     2     3    2
     6     2     4   am
     7     4    29    1
     8     4     5    1
     9     5     6    1
    10     5    33    1
    11     5    34    1
    12     6     7    1
    13     6    35    1
    14     6    36    1
    15     7    29   ar
    16     7     8   ar
    17     8     9   ar
    18     8    37    1
    19     9    10    1
    20     9    27   ar
    21    10    11    2
    22    10    12    1
    23    12    13    1
    24    13    14    1
    25    13    15    1
    26    13    16    1
    27    15    38    1
    28    15    39    1
    29    15    40    1
    30    16    17    2
    31    16    18   am
    32    18    19    1
    33    18    41    1
    34    19    25   ar
    35    19    20   ar
    36    20    21   ar
    37    20    42    1
    38    21    22   ar
    39    21    43    1
    40    22    23   ar
    41    22    44    1
    42    23    24    1
    43    23    25   ar
    44    24    45    1
    45    24    46    1
    46    24    47    1
    47    25    26    1
    48    26    48    1
    49    26    49    1
    50    26    50    1
    51    27    28   ar
    52    27    51    1
    53    28    29   ar
    54    28    52    1
@<TRIPOS>SUBSTRUCTURE
     1 ZINC000028372981        1 TEMP              0 ****  ****    0 ROOT


##########                                Name:    ZINC000330515179
##########                DOCK_Rotatable_Bonds:                   4
##########                         Heavy_Atoms:                  21
##########                    Molecular_Weight:             378.287
##########                DOCK_Rotatable_Bonds:                   4
##########                       Formal_Charge:           0.0200002
##########                     HBond_Acceptors:                   6
##########                        HBond_Donors:                   0
##########                         Heavy_Atoms:                  21
##########                          Grid_Score:          -26.582289
##########                     Grid_vdw_energy:          -26.230202
##########                      Grid_es_energy:           -0.352087
##########           Internal_energy_repulsive:            7.447862

@<TRIPOS>MOLECULE
ZINC000330515179
 41 42 1 0 0
SMALL
USER_CHARGES


@<TRIPOS>ATOM
      1 C1        -10.2447   -1.4854   54.7561 C.3     1  ZINC000330515179    0.0300
      2 O2        -10.0521   -2.4654   55.7782 O.3     1  ZINC000330515179   -0.3800
      3 C3        -11.2199   -2.7284   56.5587 C.3     1  ZINC000330515179    0.0700
      4 C4        -11.4551   -1.5703   57.5305 C.3     1  ZINC000330515179    0.0800
      5 H5        -11.4833   -0.6312   56.9778 H       1  ZINC000330515179    0.0800
      6 C6        -10.3186   -1.5254   58.5583 C.3     1  ZINC000330515179    0.0900
      7 N7        -10.6616   -0.5301   59.5864 N.am    1  ZINC000330515179   -1.0000
      8 S8         -9.5851    0.6500   60.0233 S.o2    1  ZINC000330515179    2.6900
      9 O9         -8.3703    0.3548   59.3477 O.2     1  ZINC000330515179   -0.9400
     10 O10       -10.2693    1.8879   59.8868 O.2     1  ZINC000330515179   -0.9500
     11 C11        -9.2597    0.4483   61.7431 C.ar    1  ZINC000330515179   -0.6700
     12 C12        -8.2298   -0.3743   62.1598 C.ar    1  ZINC000330515179   -0.0100
     13 C13        -7.9740   -0.5325   63.5089 C.ar    1  ZINC000330515179   -0.1100
     14 C14        -8.7486    0.1326   64.4421 C.ar    1  ZINC000330515179   -0.0400
     15 Br15       -8.3986   -0.0829   66.2879 Br      1  ZINC000330515179   -0.0300
     16 C16        -9.7789    0.9557   64.0248 C.ar    1  ZINC000330515179   -0.1100
     17 C17       -10.0307    1.1174   62.6754 C.ar    1  ZINC000330515179   -0.0100
     18 C18       -11.9893   -0.6147   60.2152 C.3     1  ZINC000330515179    0.1000
     19 C19       -13.0444   -0.7039   59.1067 C.3     1  ZINC000330515179    0.1000
     20 C20       -14.4143   -0.9871   59.7265 C.3     1  ZINC000330515179   -0.1400
     21 C21       -13.0939    0.6195   58.3405 C.3     1  ZINC000330515179   -0.1800
     22 O22       -12.6981   -1.7622   58.2100 O.3     1  ZINC000330515179   -0.3500
     23 H23        -9.3128   -1.3430   54.2090 H       1  ZINC000330515179    0.0900
     24 H24       -11.0209   -1.8240   54.0697 H       1  ZINC000330515179    0.0400
     25 H25       -10.5475   -0.5418   55.2100 H       1  ZINC000330515179    0.0400
     26 H26       -12.0820   -2.8305   55.8997 H       1  ZINC000330515179    0.0600
     27 H27       -11.0808   -3.6518   57.1208 H       1  ZINC000330515179    0.0700
     28 H28       -10.2027   -2.5057   59.0204 H       1  ZINC000330515179    0.0900
     29 H29        -9.3893   -1.2391   58.0657 H       1  ZINC000330515179    0.1000
     30 H30        -7.6253   -0.8939   61.4310 H       1  ZINC000330515179    0.1500
     31 H31        -7.1696   -1.1756   63.8343 H       1  ZINC000330515179    0.1500
     32 H32       -10.3840    1.4752   64.7531 H       1  ZINC000330515179    0.1500
     33 H33       -10.8352    1.7600   62.3494 H       1  ZINC000330515179    0.1500
     34 H34       -12.0417   -1.5033   60.8442 H       1  ZINC000330515179    0.0900
     35 H35       -12.1665    0.2748   60.8199 H       1  ZINC000330515179    0.1000
     36 H36       -14.6760   -0.1818   60.4128 H       1  ZINC000330515179    0.0800
     37 H37       -15.1639   -1.0504   58.9378 H       1  ZINC000330515179    0.0700
     38 H38       -14.3787   -1.9310   60.2707 H       1  ZINC000330515179    0.0700
     39 H39       -12.1183    0.8198   57.8977 H       1  ZINC000330515179    0.0600
     40 H40       -13.8443    0.5553   57.5526 H       1  ZINC000330515179    0.0700
     41 H41       -13.3546    1.4263   59.0256 H       1  ZINC000330515179    0.0700
@<TRIPOS>BOND
     1     1     2    1
     2     1    23    1
     3     1    24    1
     4     1    25    1
     5     2     3    1
     6     3     4    1
     7     3    26    1
     8     3    27    1
     9     4     5    1
    10     4    22    1
    11     4     6    1
    12     6     7    1
    13     6    28    1
    14     6    29    1
    15     7     8   am
    16     7    18    1
    17     8     9    2
    18     8    10    2
    19     8    11    1
    20    11    17   ar
    21    11    12   ar
    22    12    13   ar
    23    12    30    1
    24    13    14   ar
    25    13    31    1
    26    14    15    1
    27    14    16   ar
    28    16    17   ar
    29    16    32    1
    30    17    33    1
    31    18    19    1
    32    18    34    1
    33    18    35    1
    34    19    20    1
    35    19    21    1
    36    19    22    1
    37    20    36    1
    38    20    37    1
    39    20    38    1
    40    21    39    1
    41    21    40    1
    42    21    41    1
@<TRIPOS>SUBSTRUCTURE
     1 ZINC000330515179        1 TEMP              0 ****  ****    0 ROOT


##########                                Name:    ZINC000502834785
##########                DOCK_Rotatable_Bonds:                   9
##########                         Heavy_Atoms:                  26
##########                    Molecular_Weight:             356.468
##########                DOCK_Rotatable_Bonds:                   9
##########                       Formal_Charge:           0.0199998
##########                     HBond_Acceptors:                   6
##########                        HBond_Donors:                   2
##########                         Heavy_Atoms:                  26
##########                          Grid_Score:          -26.582182
##########                     Grid_vdw_energy:          -26.105608
##########                      Grid_es_energy:           -0.476574
##########           Internal_energy_repulsive:           20.187521

@<TRIPOS>MOLECULE
ZINC000502834785
 54 56 1 0 0
SMALL
USER_CHARGES


@<TRIPOS>ATOM
      1 C1         -0.2289    2.0983   58.5305 C.3     1  ZINC000502834785   -0.1800
      2 C2         -0.8778    3.2341   57.7367 C.3     1  ZINC000502834785    0.0800
      3 C3          0.0375    3.6338   56.5776 C.3     1  ZINC000502834785   -0.1500
      4 O4         -2.1363    2.7959   57.2207 O.3     1  ZINC000502834785   -0.3800
      5 C5         -2.9277    3.8418   56.6533 C.3     1  ZINC000502834785    0.1000
      6 C6         -4.3673    3.6593   57.0598 C.ar    1  ZINC000502834785   -0.0800
      7 C7         -4.7098    3.6362   58.3988 C.ar    1  ZINC000502834785   -0.1000
      8 C8         -6.0303    3.4689   58.7716 C.ar    1  ZINC000502834785   -0.1000
      9 C9         -7.0084    3.3250   57.8054 C.ar    1  ZINC000502834785   -0.1000
     10 C10        -8.4481    3.1421   58.2119 C.3     1  ZINC000502834785    0.1600
     11 N11        -9.0877    2.1717   57.3201 N.am    1  ZINC000502834785   -0.7300
     12 C12        -8.8246    0.8568   57.4551 C.2     1  ZINC000502834785    0.5100
     13 O13        -8.0594    0.4768   58.3158 O.2     1  ZINC000502834785   -0.5200
     14 C14        -9.4813   -0.1412   56.5365 C.3     1  ZINC000502834785    0.0300
     15 N15       -10.5056   -0.8889   57.2778 N.3     1  ZINC000502834785   -0.5000
     16 C16        -9.8903   -1.7462   58.3134 C.3     1  ZINC000502834785    0.0500
     17 C17       -10.7993   -2.9985   58.3817 C.3     1  ZINC000502834785   -0.1300
     18 C18       -11.1810   -3.1905   56.8903 C.3     1  ZINC000502834785   -0.1300
     19 C19       -11.2967   -1.7416   56.3718 C.3     1  ZINC000502834785    0.1500
     20 H20       -12.3401   -1.4262   56.3824 H       1  ZINC000502834785    0.1100
     21 C21       -10.7490   -1.6533   54.9707 C.2     1  ZINC000502834785    0.0600
     22 N22        -9.8357   -2.4344   54.4533 N.2     1  ZINC000502834785   -0.2900
     23 N23        -9.6058   -2.0246   53.1336 N.pl3   1  ZINC000502834785   -0.4800
     24 C24       -10.4117   -0.9726   52.8790 C.2     1  ZINC000502834785    0.0600
     25 C25       -11.1333   -0.7258   53.9968 C.2     1  ZINC000502834785   -0.2600
     26 C26        -6.6661    3.3495   56.4664 C.ar    1  ZINC000502834785   -0.1000
     27 C27        -5.3460    3.5207   56.0935 C.ar    1  ZINC000502834785   -0.1000
     28 H28        -0.8809    1.8135   59.3563 H       1  ZINC000502834785    0.0600
     29 H29        -0.0745    1.2400   57.8767 H       1  ZINC000502834785    0.0600
     30 H30         0.7311    2.4325   58.9242 H       1  ZINC000502834785    0.0700
     31 H31        -1.0320    4.0924   58.3905 H       1  ZINC000502834785    0.0600
     32 H32         0.1918    2.7754   55.9238 H       1  ZINC000502834785    0.0600
     33 H33        -0.4248    4.4429   56.0121 H       1  ZINC000502834785    0.0600
     34 H34         0.9974    3.9680   56.9712 H       1  ZINC000502834785    0.0700
     35 H35        -2.5679    4.8057   57.0132 H       1  ZINC000502834785    0.0600
     36 H36        -2.8498    3.8077   55.5666 H       1  ZINC000502834785    0.0600
     37 H37        -3.9456    3.7486   59.1537 H       1  ZINC000502834785    0.1300
     38 H38        -6.2979    3.4501   59.8178 H       1  ZINC000502834785    0.1300
     39 H39        -8.4922    2.7767   59.2379 H       1  ZINC000502834785    0.0800
     40 H40        -8.9691    4.0970   58.1435 H       1  ZINC000502834785    0.0800
     41 H41        -9.7008    2.4756   56.6324 H       1  ZINC000502834785    0.4000
     42 H42        -9.9472    0.3841   55.7027 H       1  ZINC000502834785    0.1000
     43 H43        -8.7304   -0.8335   56.1558 H       1  ZINC000502834785    0.0800
     44 H44        -8.8785   -2.0272   58.0212 H       1  ZINC000502834785    0.0400
     45 H45        -9.8796   -1.2321   59.2745 H       1  ZINC000502834785    0.1000
     46 H46       -10.2487   -3.8607   58.7580 H       1  ZINC000502834785    0.0800
     47 H47       -11.6836   -2.8064   58.9894 H       1  ZINC000502834785    0.0800
     48 H48       -10.3967   -3.7288   56.3580 H       1  ZINC000502834785    0.0800
     49 H49       -12.1353   -3.7094   56.8004 H       1  ZINC000502834785    0.0800
     50 H50        -8.9782   -2.4262   52.5125 H       1  ZINC000502834785    0.4400
     51 H51       -10.4729   -0.4280   51.9484 H       1  ZINC000502834785    0.1800
     52 H52       -11.8712    0.0535   54.1176 H       1  ZINC000502834785    0.1500
     53 H53        -7.4303    3.2375   55.7115 H       1  ZINC000502834785    0.1300
     54 H54        -5.0786    3.5398   55.0473 H       1  ZINC000502834785    0.1200
@<TRIPOS>BOND
     1     1     2    1
     2     1    28    1
     3     1    29    1
     4     1    30    1
     5     2     3    1
     6     2     4    1
     7     2    31    1
     8     3    32    1
     9     3    33    1
    10     3    34    1
    11     4     5    1
    12     5     6    1
    13     5    35    1
    14     5    36    1
    15     6    27   ar
    16     6     7   ar
    17     7     8   ar
    18     7    37    1
    19     8     9   ar
    20     8    38    1
    21     9    10    1
    22     9    26   ar
    23    10    11    1
    24    10    39    1
    25    10    40    1
    26    11    12   am
    27    11    41    1
    28    12    13    2
    29    12    14    1
    30    14    15    1
    31    14    42    1
    32    14    43    1
    33    15    19    1
    34    15    16    1
    35    16    17    1
    36    16    44    1
    37    16    45    1
    38    17    18    1
    39    17    46    1
    40    17    47    1
    41    18    19    1
    42    18    48    1
    43    18    49    1
    44    19    20    1
    45    19    21    1
    46    21    25    1
    47    21    22    2
    48    22    23    1
    49    23    24    1
    50    23    50    1
    51    24    25    2
    52    24    51    1
    53    25    52    1
    54    26    27   ar
    55    26    53    1
    56    27    54    1
@<TRIPOS>SUBSTRUCTURE
     1 ZINC000502834785        1 TEMP              0 ****  ****    0 ROOT


##########                                Name:    ZINC001193456967
##########                DOCK_Rotatable_Bonds:                   3
##########                         Heavy_Atoms:                  27
##########                    Molecular_Weight:             392.451
##########                DOCK_Rotatable_Bonds:                   3
##########                       Formal_Charge:           0.0300002
##########                     HBond_Acceptors:                   8
##########                        HBond_Donors:                   0
##########                         Heavy_Atoms:                  27
##########                          Grid_Score:          -26.570801
##########                     Grid_vdw_energy:          -24.204981
##########                      Grid_es_energy:           -2.365820
##########           Internal_energy_repulsive:           36.494507

@<TRIPOS>MOLECULE
ZINC001193456967
 48 50 1 0 0
SMALL
USER_CHARGES


@<TRIPOS>ATOM
      1 C1        -10.7121   -0.7333   53.1168 C.3     1  ZINC001193456967   -0.1400
      2 C2        -10.2064   -0.6567   54.5343 C.ar    1  ZINC001193456967    0.0300
      3 C3        -10.8203   -1.3956   55.5280 C.ar    1  ZINC001193456967   -0.1400
      4 C4        -10.3563   -1.3253   56.8285 C.ar    1  ZINC001193456967    0.0300
      5 C5         -9.2783   -0.5165   57.1348 C.ar    1  ZINC001193456967   -0.6900
      6 S6         -8.6873   -0.4264   58.7923 S.o2    1  ZINC001193456967    2.7100
      7 O7         -9.1409   -1.6044   59.4447 O.2     1  ZINC001193456967   -0.9300
      8 O8         -7.3161   -0.0624   58.7100 O.2     1  ZINC001193456967   -0.9400
      9 N9         -9.4645    0.8410   59.5217 N.am    1  ZINC001193456967   -1.0000
     10 C10        -9.4078    2.2486   59.0872 C.3     1  ZINC001193456967    0.1100
     11 C11        -9.7338    3.0698   60.3595 C.3     1  ZINC001193456967   -0.1200
     12 C12       -10.8055    2.1777   61.0399 C.3     1  ZINC001193456967   -0.0500
     13 H13       -11.7903    2.3631   60.6111 H       1  ZINC001193456967    0.1000
     14 C14       -10.8229    2.4072   62.5292 C.ar    1  ZINC001193456967   -0.0800
     15 C15       -12.0195    2.3658   63.2205 C.ar    1  ZINC001193456967   -0.0800
     16 C16       -12.0366    2.5762   64.5863 C.ar    1  ZINC001193456967   -0.1500
     17 C17       -10.8549    2.8280   65.2624 C.ar    1  ZINC001193456967    0.1000
     18 F18       -10.8705    3.0334   66.5976 F       1  ZINC001193456967   -0.1400
     19 C19        -9.6572    2.8689   64.5690 C.ar    1  ZINC001193456967   -0.1500
     20 C20        -9.6418    2.6535   63.2041 C.ar    1  ZINC001193456967   -0.0800
     21 C21       -10.3306    0.7477   60.7060 C.3     1  ZINC001193456967    0.1900
     22 C22       -11.5370   -0.1449   60.4083 C.3     1  ZINC001193456967   -0.1800
     23 C23        -9.5342    0.1764   61.8808 C.3     1  ZINC001193456967   -0.1800
     24 C24        -8.6632    0.2217   56.1406 C.ar    1  ZINC001193456967    0.0400
     25 C25        -9.1247    0.1484   54.8398 C.ar    1  ZINC001193456967   -0.0600
     26 N26        -8.4663    0.9386   53.7754 N.pl3   1  ZINC001193456967    0.0200
     27 O27        -8.3357    0.4677   52.6597 O.2     1  ZINC001193456967   -0.1400
     28 O28        -8.0552    2.0598   54.0151 O.2     1  ZINC001193456967   -0.1500
     29 H29       -10.1293   -1.4687   52.5622 H       1  ZINC001193456967    0.1100
     30 H30       -11.7611   -1.0293   53.1208 H       1  ZINC001193456967    0.0900
     31 H31       -10.6118    0.2427   52.6420 H       1  ZINC001193456967    0.0800
     32 H32       -11.6627   -2.0277   55.2886 H       1  ZINC001193456967    0.1600
     33 H33       -10.8365   -1.9022   57.6051 H       1  ZINC001193456967    0.1600
     34 H34        -8.4099    2.4933   58.7231 H       1  ZINC001193456967    0.0900
     35 H35       -10.1517    2.4370   58.3131 H       1  ZINC001193456967    0.0700
     36 H36        -8.8531    3.1746   60.9933 H       1  ZINC001193456967    0.0900
     37 H37       -10.1449    4.0455   60.1001 H       1  ZINC001193456967    0.0900
     38 H38       -12.9411    2.1693   62.6929 H       1  ZINC001193456967    0.1400
     39 H39       -12.9716    2.5444   65.1259 H       1  ZINC001193456967    0.1400
     40 H40        -8.7348    3.0656   65.0954 H       1  ZINC001193456967    0.1400
     41 H41        -8.7075    2.6849   62.6631 H       1  ZINC001193456967    0.1300
     42 H42       -12.0869    0.2590   59.5583 H       1  ZINC001193456967    0.0700
     43 H43       -11.1941   -1.1526   60.1735 H       1  ZINC001193456967    0.0600
     44 H44       -12.1893   -0.1772   61.2809 H       1  ZINC001193456967    0.0800
     45 H45       -10.1290    0.2468   62.7915 H       1  ZINC001193456967    0.0800
     46 H46        -9.2945   -0.8684   61.6834 H       1  ZINC001193456967    0.0900
     47 H47        -8.6117    0.7437   62.0045 H       1  ZINC001193456967    0.0700
     48 H48        -7.8206    0.8534   56.3799 H       1  ZINC001193456967    0.1600
@<TRIPOS>BOND
     1     1     2    1
     2     1    29    1
     3     1    30    1
     4     1    31    1
     5     2    25   ar
     6     2     3   ar
     7     3     4   ar
     8     3    32    1
     9     4     5   ar
    10     4    33    1
    11     5     6    1
    12     5    24   ar
    13     6     7    2
    14     6     8    2
    15     6     9   am
    16     9    21    1
    17     9    10    1
    18    10    11    1
    19    10    34    1
    20    10    35    1
    21    11    12    1
    22    11    36    1
    23    11    37    1
    24    12    13    1
    25    12    14    1
    26    12    21    1
    27    14    20   ar
    28    14    15   ar
    29    15    16   ar
    30    15    38    1
    31    16    17   ar
    32    16    39    1
    33    17    18    1
    34    17    19   ar
    35    19    20   ar
    36    19    40    1
    37    20    41    1
    38    21    22    1
    39    21    23    1
    40    22    42    1
    41    22    43    1
    42    22    44    1
    43    23    45    1
    44    23    46    1
    45    23    47    1
    46    24    25   ar
    47    24    48    1
    48    25    26    1
    49    26    27    2
    50    26    28    2
@<TRIPOS>SUBSTRUCTURE
     1 ZINC001193456967        1 TEMP              0 ****  ****    0 ROOT


##########                                Name:    ZINC000876376999
##########                DOCK_Rotatable_Bonds:                   7
##########                         Heavy_Atoms:                  24
##########                    Molecular_Weight:             358.502
##########                DOCK_Rotatable_Bonds:                   7
##########                       Formal_Charge:          -0.0299994
##########                     HBond_Acceptors:                   7
##########                        HBond_Donors:                   2
##########                         Heavy_Atoms:                  24
##########                          Grid_Score:          -26.568798
##########                     Grid_vdw_energy:          -24.941895
##########                      Grid_es_energy:           -1.626903
##########           Internal_energy_repulsive:           39.498123

@<TRIPOS>MOLECULE
ZINC000876376999
 54 56 1 0 0
SMALL
USER_CHARGES


@<TRIPOS>ATOM
      1 C1        -12.1263    0.4971   60.7053 C.3     1  ZINC000876376999   -0.1500
      2 C2        -10.6205    0.5138   60.9757 C.3     1  ZINC000876376999   -0.1100
      3 C3         -9.8771   -0.0327   59.7552 C.3     1  ZINC000876376999   -0.0700
      4 C4         -8.3710   -0.0141   60.0240 C.3     1  ZINC000876376999    0.0900
      5 O5         -8.0800   -0.8293   61.1609 O.3     1  ZINC000876376999   -0.5600
      6 C6        -10.3301   -1.4687   59.4818 C.3     1  ZINC000876376999   -0.1100
      7 C7         -9.5632   -2.0277   58.2811 C.3     1  ZINC000876376999   -0.1400
      8 C8         -9.8720   -1.1794   57.0433 C.3     1  ZINC000876376999    0.1100
      9 N9         -9.5748    0.2269   57.3477 N.am    1  ZINC000876376999   -0.6300
     10 C10        -8.7543    0.9429   56.5536 C.2     1  ZINC000876376999    0.7100
     11 O11        -8.5163    2.1060   56.8162 O.2     1  ZINC000876376999   -0.5800
     12 N12        -8.1976    0.3696   55.4682 N.am    1  ZINC000876376999   -0.7500
     13 C13        -7.3057    1.1478   54.6050 C.3     1  ZINC000876376999    0.1400
     14 C14        -8.1259    2.1774   53.8183 C.3     1  ZINC000876376999   -0.1100
     15 C15        -7.6331    3.5697   54.1046 C.3     1  ZINC000876376999   -0.1100
     16 C16        -6.6902    4.1763   53.0588 C.3     1  ZINC000876376999   -0.5200
     17 H17        -6.3317    5.1819   53.3195 H       1  ZINC000876376999    0.1500
     18 C18        -5.5439    3.1661   52.8234 C.3     1  ZINC000876376999   -0.1200
     19 C19        -5.9592    2.0809   51.8360 C.3     1  ZINC000876376999   -0.1200
     20 C20        -7.4101    2.2951   51.3471 C.3     1  ZINC000876376999   -0.5300
     21 H21        -7.5864    1.9028   50.3359 H       1  ZINC000876376999    0.1500
     22 C22        -8.3469    1.7045   52.4074 C.3     1  ZINC000876376999   -0.1000
     23 S23        -7.6037    4.1227   51.4609 S.o2    1  ZINC000876376999    2.3700
     24 O24        -8.9683    4.4605   51.6635 O.2     1  ZINC000876376999   -0.9300
     25 O25        -6.8455    4.7596   50.4420 O.2     1  ZINC000876376999   -0.9300
     26 C26       -10.1893    0.8382   58.5341 C.3     1  ZINC000876376999    0.1400
     27 H27       -12.3568    1.1838   59.8909 H       1  ZINC000876376999    0.0500
     28 H28       -12.4346   -0.5110   60.4287 H       1  ZINC000876376999    0.0600
     29 H29       -12.6601    0.8068   61.6038 H       1  ZINC000876376999    0.0500
     30 H30       -10.2975    1.5365   61.1699 H       1  ZINC000876376999    0.0600
     31 H31       -10.4002   -0.1078   61.8435 H       1  ZINC000876376999    0.0700
     32 H32        -7.8418   -0.4020   59.1537 H       1  ZINC000876376999    0.0500
     33 H33        -8.0493    1.0091   60.2185 H       1  ZINC000876376999    0.0400
     34 H34        -7.1412   -0.8639   61.3903 H       1  ZINC000876376999    0.3800
     35 H35       -10.1316   -2.0852   60.3585 H       1  ZINC000876376999    0.0700
     36 H36       -11.3987   -1.4776   59.2664 H       1  ZINC000876376999    0.0700
     37 H37        -8.4932   -1.9960   58.4861 H       1  ZINC000876376999    0.0700
     38 H38        -9.8695   -3.0581   58.1014 H       1  ZINC000876376999    0.0800
     39 H39        -9.2535   -1.5113   56.2094 H       1  ZINC000876376999    0.0700
     40 H40       -10.9254   -1.2821   56.7834 H       1  ZINC000876376999    0.0700
     41 H41        -8.3876   -0.5583   55.2587 H       1  ZINC000876376999    0.3900
     42 H42        -6.5662    1.6637   55.2175 H       1  ZINC000876376999    0.0800
     43 H43        -6.7987    0.4791   53.9094 H       1  ZINC000876376999    0.0700
     44 H44        -9.1438    2.1296   54.2990 H       1  ZINC000876376999    0.0900
     45 H45        -8.5031    4.2393   54.2221 H       1  ZINC000876376999    0.0900
     46 H46        -7.1213    3.5745   55.0827 H       1  ZINC000876376999    0.0900
     47 H47        -4.6839    3.7017   52.4094 H       1  ZINC000876376999    0.0800
     48 H48        -5.2459    2.7157   53.7656 H       1  ZINC000876376999    0.0900
     49 H49        -5.2884    2.1219   50.9722 H       1  ZINC000876376999    0.0800
     50 H50        -5.8632    1.1027   52.2981 H       1  ZINC000876376999    0.0900
     51 H51        -8.2579    0.6044   52.3802 H       1  ZINC000876376999    0.0900
     52 H52        -9.3889    1.9249   52.1160 H       1  ZINC000876376999    0.0900
     53 H53       -11.2688    0.8998   58.3957 H       1  ZINC000876376999    0.0600
     54 H54        -9.7804    1.8374   58.6838 H       1  ZINC000876376999    0.1000
@<TRIPOS>BOND
     1     1     2    1
     2     1    27    1
     3     1    28    1
     4     1    29    1
     5     2     3    1
     6     2    30    1
     7     2    31    1
     8     3    26    1
     9     3     4    1
    10     3     6    1
    11     4     5    1
    12     4    32    1
    13     4    33    1
    14     5    34    1
    15     6     7    1
    16     6    35    1
    17     6    36    1
    18     7     8    1
    19     7    37    1
    20     7    38    1
    21     8     9    1
    22     8    39    1
    23     8    40    1
    24     9    10   am
    25     9    26    1
    26    10    11    2
    27    10    12   am
    28    12    13    1
    29    12    41    1
    30    13    14    1
    31    13    42    1
    32    13    43    1
    33    14    22    1
    34    14    15    1
    35    14    44    1
    36    15    16    1
    37    15    45    1
    38    15    46    1
    39    16    17    1
    40    16    23    1
    41    16    18    1
    42    18    19    1
    43    18    47    1
    44    18    48    1
    45    19    20    1
    46    19    49    1
    47    19    50    1
    48    20    21    1
    49    20    22    1
    50    20    23    1
    51    22    51    1
    52    22    52    1
    53    23    24    2
    54    23    25    2
    55    26    53    1
    56    26    54    1
@<TRIPOS>SUBSTRUCTURE
     1 ZINC000876376999        1 TEMP              0 ****  ****    0 ROOT


##########                                Name:    ZINC000192150625
##########                DOCK_Rotatable_Bonds:                   5
##########                         Heavy_Atoms:                  28
##########                    Molecular_Weight:             377.443
##########                DOCK_Rotatable_Bonds:                   5
##########                       Formal_Charge:           0.0199997
##########                     HBond_Acceptors:                   6
##########                        HBond_Donors:                   1
##########                         Heavy_Atoms:                  28
##########                          Grid_Score:          -26.553076
##########                     Grid_vdw_energy:          -27.710403
##########                      Grid_es_energy:            1.157327
##########           Internal_energy_repulsive:           18.913475

@<TRIPOS>MOLECULE
ZINC000192150625
 51 54 1 0 0
SMALL
USER_CHARGES


@<TRIPOS>ATOM
      1 C1         -4.7900    2.4954   51.6621 C.3     1  ZINC000192150625   -0.0800
      2 C2         -5.2983    2.6069   53.0765 C.2     1  ZINC000192150625    0.0400
      3 C3         -6.4973    2.1811   53.4963 C.2     1  ZINC000192150625   -0.1800
      4 C4         -7.5645    1.5180   52.6641 C.3     1  ZINC000192150625   -0.0800
      5 C5         -6.5624    2.4901   54.9300 C.ar    1  ZINC000192150625   -0.1000
      6 C6         -7.5226    2.3040   55.9225 C.ar    1  ZINC000192150625   -0.0700
      7 C7         -7.2585    2.7240   57.2148 C.ar    1  ZINC000192150625    0.1200
      8 N8         -8.2162    2.5411   58.2179 N.am    1  ZINC000192150625   -0.6400
      9 C9         -8.2744    1.3739   58.8892 C.2     1  ZINC000192150625    0.5100
     10 O10        -7.4957    0.4814   58.6235 O.2     1  ZINC000192150625   -0.4900
     11 C11        -9.2969    1.1786   59.9602 C.2     1  ZINC000192150625    0.5100
     12 O12        -8.9712    1.2364   61.1278 O.2     1  ZINC000192150625   -0.5200
     13 N13       -10.5812    0.9382   59.6298 N.am    1  ZINC000192150625   -0.5800
     14 C14       -10.9896    0.8593   58.2207 C.3     1  ZINC000192150625    0.0500
     15 C15       -11.7239   -0.4658   57.9935 C.3     1  ZINC000192150625   -0.1200
     16 C16       -12.8794   -0.5816   58.9902 C.3     1  ZINC000192150625   -0.0500
     17 C17       -13.6249   -1.8686   58.7472 C.ar    1  ZINC000192150625   -0.0300
     18 C18       -14.5169   -2.3605   59.6878 C.ar    1  ZINC000192150625   -0.1700
     19 C19       -15.1825   -3.5440   59.4302 C.ar    1  ZINC000192150625    0.1000
     20 N20       -14.9767   -4.2030   58.3067 N.ar    1  ZINC000192150625   -0.4900
     21 C21       -14.1358   -3.7651   57.3900 C.ar    1  ZINC000192150625    0.1000
     22 C22       -13.4393   -2.5859   57.5753 C.ar    1  ZINC000192150625   -0.1700
     23 C23       -12.3270   -0.5739   60.4173 C.3     1  ZINC000192150625   -0.1200
     24 C24       -11.5985    0.7440   60.6720 C.3     1  ZINC000192150625    0.1100
     25 C25        -6.0401    3.3284   57.5183 C.ar    1  ZINC000192150625   -0.1100
     26 C26        -5.0870    3.5150   56.5416 C.ar    1  ZINC000192150625   -0.0800
     27 C27        -5.3347    3.0998   55.2391 C.ar    1  ZINC000192150625    0.0500
     28 O28        -4.6118    3.1425   54.1007 O.3     1  ZINC000192150625   -0.1900
     29 H29        -3.7859    2.9153   51.6027 H       1  ZINC000192150625    0.0800
     30 H30        -4.7633    1.4465   51.3672 H       1  ZINC000192150625    0.0900
     31 H31        -5.4534    3.0440   50.9934 H       1  ZINC000192150625    0.0900
     32 H32        -7.4188    0.4379   52.6800 H       1  ZINC000192150625    0.0700
     33 H33        -8.5458    1.7584   53.0731 H       1  ZINC000192150625    0.0700
     34 H34        -7.5006    1.8782   51.6373 H       1  ZINC000192150625    0.0700
     35 H35        -8.4664    1.8357   55.6850 H       1  ZINC000192150625    0.1400
     36 H36        -8.8384    3.2543   58.4303 H       1  ZINC000192150625    0.4300
     37 H37       -11.6547    1.6905   57.9859 H       1  ZINC000192150625    0.0700
     38 H38       -10.1077    0.9027   57.5816 H       1  ZINC000192150625    0.1600
     39 H39       -12.1159   -0.4949   56.9768 H       1  ZINC000192150625    0.0800
     40 H40       -11.0319   -1.2950   58.1408 H       1  ZINC000192150625    0.0700
     41 H41       -13.5578    0.2614   58.8591 H       1  ZINC000192150625    0.0900
     42 H42       -14.6893   -1.8257   60.6101 H       1  ZINC000192150625    0.1300
     43 H43       -15.8790   -3.9339   60.1577 H       1  ZINC000192150625    0.1600
     44 H44       -13.9930   -4.3323   56.4822 H       1  ZINC000192150625    0.1600
     45 H45       -12.7523   -2.2322   56.8207 H       1  ZINC000192150625    0.1300
     46 H46       -13.1484   -0.6799   61.1260 H       1  ZINC000192150625    0.0800
     47 H47       -11.6294   -1.4022   60.5419 H       1  ZINC000192150625    0.0700
     48 H48       -11.1196    0.7136   61.6507 H       1  ZINC000192150625    0.1000
     49 H49       -12.3110    1.5680   60.6370 H       1  ZINC000192150625    0.0800
     50 H50        -5.8415    3.6539   58.5287 H       1  ZINC000192150625    0.1400
     51 H51        -4.1463    3.9846   56.7883 H       1  ZINC000192150625    0.1400
@<TRIPOS>BOND
     1     1     2    1
     2     1    29    1
     3     1    30    1
     4     1    31    1
     5     2    28    1
     6     2     3    2
     7     3     4    1
     8     3     5    1
     9     4    32    1
    10     4    33    1
    11     4    34    1
    12     5    27   ar
    13     5     6   ar
    14     6     7   ar
    15     6    35    1
    16     7     8    1
    17     7    25   ar
    18     8     9   am
    19     8    36    1
    20     9    10    2
    21     9    11    1
    22    11    12    2
    23    11    13   am
    24    13    24    1
    25    13    14    1
    26    14    15    1
    27    14    37    1
    28    14    38    1
    29    15    16    1
    30    15    39    1
    31    15    40    1
    32    16    17    1
    33    16    23    1
    34    16    41    1
    35    17    22   ar
    36    17    18   ar
    37    18    19   ar
    38    18    42    1
    39    19    20   ar
    40    19    43    1
    41    20    21   ar
    42    21    22   ar
    43    21    44    1
    44    22    45    1
    45    23    24    1
    46    23    46    1
    47    23    47    1
    48    24    48    1
    49    24    49    1
    50    25    26   ar
    51    25    50    1
    52    26    27   ar
    53    26    51    1
    54    27    28    1
@<TRIPOS>SUBSTRUCTURE
     1 ZINC000192150625        1 TEMP              0 ****  ****    0 ROOT


##########                                Name:    ZINC001513543414
##########                DOCK_Rotatable_Bonds:                   6
##########                         Heavy_Atoms:                  26
##########                    Molecular_Weight:             364.488
##########                DOCK_Rotatable_Bonds:                   6
##########                       Formal_Charge:         -0.00999974
##########                     HBond_Acceptors:                   7
##########                        HBond_Donors:                   0
##########                         Heavy_Atoms:                  26
##########                          Grid_Score:          -26.532286
##########                     Grid_vdw_energy:          -26.128649
##########                      Grid_es_energy:           -0.403637
##########           Internal_energy_repulsive:           36.393963

@<TRIPOS>MOLECULE
ZINC001513543414
 58 61 1 0 0
SMALL
USER_CHARGES


@<TRIPOS>ATOM
      1 C1        -13.2762    3.6102   56.1721 C.3     1  ZINC001513543414   -0.1500
      2 C2        -13.6004    3.4417   54.6864 C.3     1  ZINC001513543414   -0.1200
      3 C3        -13.5689    1.9560   54.3228 C.3     1  ZINC001513543414    0.1100
      4 C4        -14.5874    1.1923   55.1717 C.3     1  ZINC001513543414   -0.1500
      5 C5        -13.8938    1.7763   52.8243 C.3     1  ZINC001513543414   -0.1500
      6 C6        -12.9164    0.6433   52.4086 C.3     1  ZINC001513543414   -0.1500
      7 C7        -11.6967    0.9618   53.3094 C.3     1  ZINC001513543414    0.0700
      8 H8        -11.0833    1.7395   52.8545 H       1  ZINC001513543414    0.0800
      9 C9        -10.8647   -0.3009   53.5428 C.3     1  ZINC001513543414    0.1100
     10 N10        -9.6885    0.0316   54.3504 N.pl3   1  ZINC001513543414   -0.4600
     11 C11        -9.4763   -0.2766   55.6656 C.2     1  ZINC001513543414    0.1900
     12 C12       -10.4174   -1.0307   56.5694 C.3     1  ZINC001513543414    0.1800
     13 H13       -11.4209   -0.6102   56.5052 H       1  ZINC001513543414    0.1000
     14 C14       -10.4385   -2.5330   56.1905 C.3     1  ZINC001513543414   -0.1500
     15 C15       -10.8813   -3.1701   57.5359 C.3     1  ZINC001513543414   -0.1500
     16 C16       -10.2155   -2.2406   58.5734 C.3     1  ZINC001513543414    0.0500
     17 O17        -9.9456   -0.9904   57.9255 O.3     1  ZINC001513543414   -0.3500
     18 N18        -8.3092    0.2018   55.9923 N.2     1  ZINC001513543414   -0.2600
     19 N19        -7.7739    0.7868   54.9809 N.2     1  ZINC001513543414   -0.3100
     20 C20        -8.5750    0.7079   53.9447 C.2     1  ZINC001513543414    0.3400
     21 N21        -8.3387    1.2220   52.6796 N.3     1  ZINC001513543414   -0.4500
     22 C22        -7.1834    0.5538   52.0436 C.3     1  ZINC001513543414    0.0500
     23 C23        -6.5122    1.6555   51.1861 C.3     1  ZINC001513543414   -0.1500
     24 C24        -6.6906    2.9059   52.0868 C.3     1  ZINC001513543414    0.0700
     25 H25        -5.9079    2.9502   52.8442 H       1  ZINC001513543414    0.0800
     26 O26        -6.6978    4.0987   51.2998 O.3     1  ZINC001513543414   -0.3800
     27 C27        -7.7439    4.1472   50.3276 C.3     1  ZINC001513543414    0.0300
     28 C28        -8.0689    2.6702   52.7397 C.3     1  ZINC001513543414    0.0600
     29 O29       -12.2562    1.4284   54.5474 O.3     1  ZINC001513543414   -0.3600
     30 H30       -13.2987    4.6687   56.4310 H       1  ZINC001513543414    0.0500
     31 H31       -14.0151    3.0747   56.7682 H       1  ZINC001513543414    0.0500
     32 H32       -12.2840    3.2073   56.3755 H       1  ZINC001513543414    0.0600
     33 H33       -14.5925    3.8446   54.4830 H       1  ZINC001513543414    0.0700
     34 H34       -12.8616    3.9773   54.0903 H       1  ZINC001513543414    0.0600
     35 H35       -15.5872    1.5795   54.9753 H       1  ZINC001513543414    0.0700
     36 H36       -14.5514    0.1331   54.9171 H       1  ZINC001513543414    0.0600
     37 H37       -14.3491    1.3204   56.2276 H       1  ZINC001513543414    0.0700
     38 H38       -14.9294    1.4654   52.6864 H       1  ZINC001513543414    0.0900
     39 H39       -13.6852    2.6914   52.2698 H       1  ZINC001513543414    0.0800
     40 H40       -13.3309   -0.3378   52.6409 H       1  ZINC001513543414    0.0800
     41 H41       -12.6553    0.7174   51.3529 H       1  ZINC001513543414    0.0900
     42 H42       -11.4680   -1.0417   54.0674 H       1  ZINC001513543414    0.1000
     43 H43       -10.5437   -0.7069   52.5835 H       1  ZINC001513543414    0.1100
     44 H44       -11.1672   -2.7296   55.4041 H       1  ZINC001513543414    0.0900
     45 H45        -9.4466   -2.8788   55.8997 H       1  ZINC001513543414    0.0900
     46 H46       -11.9665   -3.1493   57.6364 H       1  ZINC001513543414    0.0800
     47 H47       -10.5016   -4.1878   57.6268 H       1  ZINC001513543414    0.0900
     48 H48       -10.8904   -2.0817   59.4143 H       1  ZINC001513543414    0.0700
     49 H49        -9.2841   -2.6852   58.9240 H       1  ZINC001513543414    0.0700
     50 H50        -6.4911    0.1890   52.8023 H       1  ZINC001513543414    0.0600
     51 H51        -7.5209   -0.2668   51.4105 H       1  ZINC001513543414    0.0900
     52 H52        -5.4563    1.4369   51.0263 H       1  ZINC001513543414    0.0800
     53 H53        -7.0313    1.7814   50.2360 H       1  ZINC001513543414    0.0900
     54 H54        -7.6808    5.0830   49.7722 H       1  ZINC001513543414    0.0900
     55 H55        -7.6396    3.3084   49.6395 H       1  ZINC001513543414    0.0400
     56 H56        -8.7096    4.0872   50.8297 H       1  ZINC001513543414    0.0400
     57 H57        -8.8374    3.2138   52.1900 H       1  ZINC001513543414    0.1000
     58 H58        -8.0487    3.0010   53.7782 H       1  ZINC001513543414    0.0900
@<TRIPOS>BOND
     1     1     2    1
     2     1    30    1
     3     1    31    1
     4     1    32    1
     5     2     3    1
     6     2    33    1
     7     2    34    1
     8     3    29    1
     9     3     4    1
    10     3     5    1
    11     4    35    1
    12     4    36    1
    13     4    37    1
    14     5     6    1
    15     5    38    1
    16     5    39    1
    17     6     7    1
    18     6    40    1
    19     6    41    1
    20     7     8    1
    21     7     9    1
    22     7    29    1
    23     9    10    1
    24     9    42    1
    25     9    43    1
    26    10    20    1
    27    10    11    1
    28    11    12    1
    29    11    18    2
    30    12    13    1
    31    12    17    1
    32    12    14    1
    33    14    15    1
    34    14    44    1
    35    14    45    1
    36    15    16    1
    37    15    46    1
    38    15    47    1
    39    16    17    1
    40    16    48    1
    41    16    49    1
    42    18    19    1
    43    19    20    2
    44    20    21    1
    45    21    28    1
    46    21    22    1
    47    22    23    1
    48    22    50    1
    49    22    51    1
    50    23    24    1
    51    23    52    1
    52    23    53    1
    53    24    25    1
    54    24    26    1
    55    24    28    1
    56    26    27    1
    57    27    54    1
    58    27    55    1
    59    27    56    1
    60    28    57    1
    61    28    58    1
@<TRIPOS>SUBSTRUCTURE
     1 ZINC001513543414        1 TEMP              0 ****  ****    0 ROOT


##########                                Name:    ZINC000550952205
##########                DOCK_Rotatable_Bonds:                   7
##########                         Heavy_Atoms:                  28
##########                    Molecular_Weight:             407.484
##########                DOCK_Rotatable_Bonds:                   7
##########                       Formal_Charge:        -2.68221e-07
##########                     HBond_Acceptors:                   8
##########                        HBond_Donors:                   2
##########                         Heavy_Atoms:                  28
##########                          Grid_Score:          -26.482094
##########                     Grid_vdw_energy:          -25.006039
##########                      Grid_es_energy:           -1.476055
##########           Internal_energy_repulsive:            4.504287

@<TRIPOS>MOLECULE
ZINC000550952205
 51 54 1 0 0
SMALL
USER_CHARGES


@<TRIPOS>ATOM
      1 O1         -8.8640   -0.4536   62.3480 O.2     1  ZINC000550952205   -0.5100
      2 C2         -9.1973    0.6502   61.9695 C.2     1  ZINC000550952205    0.5100
      3 N3         -9.5766    1.5836   62.8647 N.am    1  ZINC000550952205   -0.7000
      4 C4         -9.5921    1.2638   64.2944 C.3     1  ZINC000550952205    0.1200
      5 C5        -10.4695    2.2758   65.0338 C.3     1  ZINC000550952205   -0.0900
      6 H6        -10.6271    1.9430   66.0598 H       1  ZINC000550952205    0.1000
      7 C7         -9.7964    3.6216   65.0368 C.3     1  ZINC000550952205   -0.1300
      8 C8        -10.0782    4.4188   66.3246 C.3     1  ZINC000550952205   -0.1200
      9 C9        -11.5445    4.3119   66.7848 C.3     1  ZINC000550952205   -0.1300
     10 C10       -12.5156    4.4028   65.6390 C.3     1  ZINC000550952205   -0.1500
     11 C11       -12.8577    2.9731   65.1720 C.3     1  ZINC000550952205    0.3000
     12 F12       -13.0102    2.1539   66.2958 F       1  ZINC000550952205   -0.2000
     13 F13       -14.0656    3.0036   64.4669 F       1  ZINC000550952205   -0.2000
     14 C14       -11.8288    2.4048   64.3164 C.3     1  ZINC000550952205   -0.1700
     15 C15        -9.1815    0.9762   60.5123 C.2     1  ZINC000550952205    0.5100
     16 O16        -9.6988    1.9994   60.1136 O.2     1  ZINC000550952205   -0.4900
     17 N17        -8.5928    0.1343   59.6399 N.am    1  ZINC000550952205   -0.6400
     18 C18        -8.5780    0.4394   58.2758 C.ar    1  ZINC000550952205    0.1500
     19 C19        -9.6436    0.0556   57.4631 C.ar    1  ZINC000550952205   -0.1200
     20 C20        -9.6429    0.3459   56.1335 C.ar    1  ZINC000550952205   -0.0400
     21 C21        -8.5628    1.0413   55.5526 C.ar    1  ZINC000550952205    0.0800
     22 N22        -8.3732    1.4195   54.2737 N.2     1  ZINC000550952205   -0.4700
     23 C23        -7.2964    2.0485   53.9898 C.2     1  ZINC000550952205    0.1200
     24 C24        -6.9393    2.5379   52.6099 C.3     1  ZINC000550952205   -0.1100
     25 C25        -5.4930    2.3519   52.1467 C.3     1  ZINC000550952205   -0.1500
     26 C26        -6.6045    1.4851   51.5516 C.3     1  ZINC000550952205   -0.1500
     27 S27        -6.3151    2.2652   55.3689 S.3     1  ZINC000550952205    0.1200
     28 C28        -7.4945    1.4258   56.3715 C.ar    1  ZINC000550952205   -0.1700
     29 C29        -7.5083    1.1280   57.7314 C.ar    1  ZINC000550952205   -0.0700
     30 H30        -9.8393    2.4671   62.5625 H       1  ZINC000550952205    0.4200
     31 H31        -9.9942    0.2609   64.4380 H       1  ZINC000550952205    0.0800
     32 H32        -8.5764    1.3079   64.6875 H       1  ZINC000550952205    0.0800
     33 H33        -8.7203    3.4778   64.9392 H       1  ZINC000550952205    0.0700
     34 H34       -10.1524    4.1959   64.1815 H       1  ZINC000550952205    0.0700
     35 H35        -9.4323    4.0437   67.1187 H       1  ZINC000550952205    0.0700
     36 H36        -9.8408    5.4679   66.1477 H       1  ZINC000550952205    0.0700
     37 H37       -11.6863    3.3578   67.2923 H       1  ZINC000550952205    0.0800
     38 H38       -11.7530    5.1178   67.4885 H       1  ZINC000550952205    0.0700
     39 H39       -13.4239    4.9077   65.9679 H       1  ZINC000550952205    0.0900
     40 H40       -12.0619    4.9575   64.8176 H       1  ZINC000550952205    0.1000
     41 H41       -11.7020    3.0453   63.4436 H       1  ZINC000550952205    0.1000
     42 H42       -12.1516    1.4181   63.9839 H       1  ZINC000550952205    0.1000
     43 H43        -8.1793   -0.6832   59.9585 H       1  ZINC000550952205    0.4300
     44 H44       -10.4783   -0.4781   57.8930 H       1  ZINC000550952205    0.1400
     45 H45       -10.4764    0.0408   55.5183 H       1  ZINC000550952205    0.1400
     46 H46        -7.4626    3.4352   52.2793 H       1  ZINC000550952205    0.1300
     47 H47        -5.0644    3.1269   51.5112 H       1  ZINC000550952205    0.1000
     48 H48        -4.7999    1.8755   52.8400 H       1  ZINC000550952205    0.1100
     49 H49        -6.6425    0.4383   51.8533 H       1  ZINC000550952205    0.1000
     50 H50        -6.9071    1.6897   50.5246 H       1  ZINC000550952205    0.1100
     51 H51        -6.6843    1.4317   58.3599 H       1  ZINC000550952205    0.1400
@<TRIPOS>BOND
     1     1     2    2
     2     2     3   am
     3     2    15    1
     4     3     4    1
     5     3    30    1
     6     4     5    1
     7     4    31    1
     8     4    32    1
     9     5     6    1
    10     5    14    1
    11     5     7    1
    12     7     8    1
    13     7    33    1
    14     7    34    1
    15     8     9    1
    16     8    35    1
    17     8    36    1
    18     9    10    1
    19     9    37    1
    20     9    38    1
    21    10    11    1
    22    10    39    1
    23    10    40    1
    24    11    12    1
    25    11    13    1
    26    11    14    1
    27    14    41    1
    28    14    42    1
    29    15    16    2
    30    15    17   am
    31    17    18    1
    32    17    43    1
    33    18    29   ar
    34    18    19   ar
    35    19    20   ar
    36    19    44    1
    37    20    21   ar
    38    20    45    1
    39    21    28   ar
    40    21    22    1
    41    22    23    2
    42    23    24    1
    43    23    27    1
    44    24    26    1
    45    24    25    1
    46    24    46    1
    47    25    26    1
    48    25    47    1
    49    25    48    1
    50    26    49    1
    51    26    50    1
    52    27    28    1
    53    28    29   ar
    54    29    51    1
@<TRIPOS>SUBSTRUCTURE
     1 ZINC000550952205        1 TEMP              0 ****  ****    0 ROOT


##########                                Name:    ZINC000840649129
##########                DOCK_Rotatable_Bonds:                   8
##########                         Heavy_Atoms:                  26
##########                    Molecular_Weight:             376.839
##########                DOCK_Rotatable_Bonds:                   8
##########                       Formal_Charge:          -0.0199998
##########                     HBond_Acceptors:                   7
##########                        HBond_Donors:                   3
##########                         Heavy_Atoms:                  26
##########                          Grid_Score:          -26.477579
##########                     Grid_vdw_energy:          -25.510723
##########                      Grid_es_energy:           -0.966857
##########           Internal_energy_repulsive:          167.475677

@<TRIPOS>MOLECULE
ZINC000840649129
 47 48 1 0 0
SMALL
USER_CHARGES


@<TRIPOS>ATOM
      1 C1         -8.0134   -1.4046   59.5797 C.3     1  ZINC000840649129    0.0200
      2 O2         -9.2532   -0.9414   59.0410 O.3     1  ZINC000840649129   -0.2900
      3 C3         -9.3772   -0.9444   57.6893 C.ar    1  ZINC000840649129    0.1400
      4 C4         -8.7428    0.0276   56.9312 C.ar    1  ZINC000840649129   -0.1700
      5 C5         -8.8677    0.0264   55.5564 C.ar    1  ZINC000840649129   -0.1200
      6 C6         -9.6294   -0.9487   54.9211 C.ar    1  ZINC000840649129    0.1700
      7 N7         -9.7501   -0.9418   53.5267 N.pl3   1  ZINC000840649129   -0.8800
      8 C8        -10.2680   -1.9261   55.6647 C.ar    1  ZINC000840649129   -0.1000
      9 C9        -10.1425   -1.9336   57.0562 C.ar    1  ZINC000840649129   -0.1200
     10 C10       -10.8189   -2.9713   57.8554 C.2     1  ZINC000840649129    0.5100
     11 O11       -10.4310   -4.1220   57.8102 O.2     1  ZINC000840649129   -0.4800
     12 O12       -11.8673   -2.6439   58.6359 O.3     1  ZINC000840649129   -0.3200
     13 C13       -13.1206   -2.3461   57.9657 C.3     1  ZINC000840649129    0.0800
     14 H14       -13.0633   -2.6713   56.9269 H       1  ZINC000840649129    0.1200
     15 C15       -13.3758   -0.8616   58.0141 C.2     1  ZINC000840649129    0.5200
     16 O16       -14.0583   -0.3354   57.1607 O.2     1  ZINC000840649129   -0.4900
     17 N17       -12.8456   -0.1188   59.0058 N.am    1  ZINC000840649129   -0.6600
     18 C18       -13.0826    1.2601   59.0509 C.ar    1  ZINC000840649129    0.1600
     19 C19       -13.8690    1.8628   58.0787 C.ar    1  ZINC000840649129   -0.1400
     20 C20       -14.1015    3.2239   58.1260 C.ar    1  ZINC000840649129   -0.0900
     21 C21       -13.5521    3.9862   59.1401 C.ar    1  ZINC000840649129   -0.1300
     22 C22       -12.7675    3.3896   60.1104 C.ar    1  ZINC000840649129   -0.0900
     23 C23       -12.5357    2.0279   60.0723 C.ar    1  ZINC000840649129   -0.0700
     24 Cl24      -11.5514    1.2792   61.2908 Cl      1  ZINC000840649129   -0.0700
     25 C25       -14.2624   -3.0830   58.6686 C.3     1  ZINC000840649129   -0.1100
     26 C26       -14.4028   -2.5595   60.0993 C.3     1  ZINC000840649129   -0.1600
     27 C27       -15.5683   -2.8441   57.9077 C.3     1  ZINC000840649129   -0.1500
     28 H28        -8.0471   -1.3501   60.6679 H       1  ZINC000840649129    0.1000
     29 H29        -7.8470   -2.4371   59.2727 H       1  ZINC000840649129    0.0600
     30 H30        -7.2004   -0.7799   59.2097 H       1  ZINC000840649129    0.0600
     31 H31        -8.1496    0.7879   57.4175 H       1  ZINC000840649129    0.1400
     32 H32        -8.3715    0.7866   54.9712 H       1  ZINC000840649129    0.1300
     33 H33        -9.3028   -0.2576   53.0045 H       1  ZINC000840649129    0.4000
     34 H34       -10.2811   -1.6212   53.0825 H       1  ZINC000840649129    0.4000
     35 H35       -10.8589   -2.6829   55.1702 H       1  ZINC000840649129    0.1400
     36 H36       -12.2998   -0.5397   59.6884 H       1  ZINC000840649129    0.4200
     37 H37       -14.2985    1.2684   57.2859 H       1  ZINC000840649129    0.1700
     38 H38       -14.7131    3.6931   57.3696 H       1  ZINC000840649129    0.1300
     39 H39       -13.7356    5.0498   59.1745 H       1  ZINC000840649129    0.1300
     40 H40       -12.3395    3.9878   60.9011 H       1  ZINC000840649129    0.1400
     41 H41       -14.0457   -4.1509   58.6920 H       1  ZINC000840649129    0.0900
     42 H42       -14.4929   -1.4733   60.0817 H       1  ZINC000840649129    0.0700
     43 H43       -15.2926   -2.9904   60.5582 H       1  ZINC000840649129    0.0800
     44 H44       -13.5229   -2.8417   60.6774 H       1  ZINC000840649129    0.0600
     45 H45       -15.4683   -3.2171   56.8883 H       1  ZINC000840649129    0.0500
     46 H46       -16.3818   -3.3690   58.4085 H       1  ZINC000840649129    0.0600
     47 H47       -15.7850   -1.7762   57.8842 H       1  ZINC000840649129    0.0700
@<TRIPOS>BOND
     1     1     2    1
     2     1    28    1
     3     1    29    1
     4     1    30    1
     5     2     3    1
     6     3     9   ar
     7     3     4   ar
     8     4     5   ar
     9     4    31    1
    10     5     6   ar
    11     5    32    1
    12     6     7    1
    13     6     8   ar
    14     7    33    1
    15     7    34    1
    16     8     9   ar
    17     8    35    1
    18     9    10    1
    19    10    11    2
    20    10    12    1
    21    12    13    1
    22    13    14    1
    23    13    15    1
    24    13    25    1
    25    15    16    2
    26    15    17   am
    27    17    18    1
    28    17    36    1
    29    18    23   ar
    30    18    19   ar
    31    19    20   ar
    32    19    37    1
    33    20    21   ar
    34    20    38    1
    35    21    22   ar
    36    21    39    1
    37    22    23   ar
    38    22    40    1
    39    23    24    1
    40    25    26    1
    41    25    27    1
    42    25    41    1
    43    26    42    1
    44    26    43    1
    45    26    44    1
    46    27    45    1
    47    27    46    1
    48    27    47    1
@<TRIPOS>SUBSTRUCTURE
     1 ZINC000840649129        1 TEMP              0 ****  ****    0 ROOT


##########                                Name:    ZINC000675319328
##########                DOCK_Rotatable_Bonds:                   7
##########                         Heavy_Atoms:                  26
##########                    Molecular_Weight:             363.475
##########                DOCK_Rotatable_Bonds:                   7
##########                       Formal_Charge:          -0.0200007
##########                     HBond_Acceptors:                   6
##########                        HBond_Donors:                   1
##########                         Heavy_Atoms:                  26
##########                          Grid_Score:          -26.422733
##########                     Grid_vdw_energy:          -25.802694
##########                      Grid_es_energy:           -0.620039
##########           Internal_energy_repulsive:           14.616167

@<TRIPOS>MOLECULE
ZINC000675319328
 56 58 1 0 0
SMALL
USER_CHARGES


@<TRIPOS>ATOM
      1 C1        -11.4362   -0.0460   53.0761 C.3     1  ZINC000675319328   -0.1600
      2 C2        -10.3401    0.6414   53.8926 C.3     1  ZINC000675319328    0.1600
      3 H3        -10.5889    1.6949   54.0206 H       1  ZINC000675319328    0.0900
      4 C4         -9.0037    0.5187   53.1577 C.3     1  ZINC000675319328   -0.1200
      5 C5         -7.9371    1.3255   53.9008 C.3     1  ZINC000675319328   -0.1200
      6 H6         -7.7498    0.9016   54.8874 H       1  ZINC000675319328    0.0800
      7 C7         -6.6249    1.4007   53.0734 C.3     1  ZINC000675319328   -0.1500
      8 C8         -6.0350    2.7414   53.5788 C.3     1  ZINC000675319328    0.0500
      9 O9         -7.1700    3.5988   53.7789 O.3     1  ZINC000675319328   -0.3900
     10 C10        -8.3473    2.8098   54.0093 C.3     1  ZINC000675319328    0.0500
     11 N11       -10.2355    0.0013   55.2062 N.am    1  ZINC000675319328   -0.7400
     12 C12       -10.9102    0.5068   56.2578 C.2     1  ZINC000675319328    0.7000
     13 O13       -11.6056    1.4940   56.1162 O.2     1  ZINC000675319328   -0.5900
     14 N14       -10.8140   -0.0821   57.4663 N.am    1  ZINC000675319328   -0.6200
     15 C15        -9.9620   -1.2792   57.6069 C.3     1  ZINC000675319328    0.1300
     16 C16        -9.1456   -1.2343   58.9095 C.3     1  ZINC000675319328   -0.1300
     17 C17        -8.6473    0.1739   59.1485 C.3     1  ZINC000675319328    0.0700
     18 N18        -9.6124    0.8876   59.9830 N.3     1  ZINC000675319328   -0.5500
     19 C19        -8.9332    1.8140   60.8986 C.3     1  ZINC000675319328    0.1000
     20 C20        -8.9544    1.2466   62.2945 C.ar    1  ZINC000675319328   -0.0900
     21 C21        -9.6093    1.9247   63.3058 C.ar    1  ZINC000675319328   -0.0900
     22 C22        -9.6294    1.4053   64.5863 C.ar    1  ZINC000675319328   -0.1500
     23 C23        -8.9939    0.2052   64.8561 C.ar    1  ZINC000675319328    0.1000
     24 F24        -9.0133   -0.3037   66.1075 F       1  ZINC000675319328   -0.1400
     25 C25        -8.3387   -0.4733   63.8424 C.ar    1  ZINC000675319328   -0.1500
     26 C26        -8.3240    0.0457   62.5616 C.ar    1  ZINC000675319328   -0.0700
     27 C27       -10.6733    1.5321   59.3046 C.3     1  ZINC000675319328    0.0500
     28 C28       -11.5462    0.4874   58.5793 C.3     1  ZINC000675319328    0.1100
     29 H29       -12.3883    0.0415   53.5997 H       1  ZINC000675319328    0.0600
     30 H30       -11.5140    0.4302   52.0988 H       1  ZINC000675319328    0.0700
     31 H31       -11.1874   -1.0995   52.9482 H       1  ZINC000675319328    0.0500
     32 H32        -8.7054   -0.5290   53.1188 H       1  ZINC000675319328    0.0700
     33 H33        -9.1101    0.9041   52.1437 H       1  ZINC000675319328    0.0900
     34 H34        -5.9636    0.5670   53.3089 H       1  ZINC000675319328    0.0800
     35 H35        -6.8360    1.4425   52.0048 H       1  ZINC000675319328    0.0800
     36 H36        -5.5043    2.5908   54.5188 H       1  ZINC000675319328    0.0600
     37 H37        -5.3667    3.1669   52.8301 H       1  ZINC000675319328    0.0900
     38 H38        -9.0995    3.0390   53.2544 H       1  ZINC000675319328    0.0700
     39 H39        -8.7435    3.0182   55.0031 H       1  ZINC000675319328    0.0700
     40 H40        -9.6808   -0.7863   55.3192 H       1  ZINC000675319328    0.3900
     41 H41       -10.5931   -2.1679   57.6118 H       1  ZINC000675319328    0.0600
     42 H42        -9.2788   -1.3327   56.7592 H       1  ZINC000675319328    0.0900
     43 H43        -9.7760   -1.5426   59.7436 H       1  ZINC000675319328    0.0800
     44 H44        -8.2952   -1.9112   58.8284 H       1  ZINC000675319328    0.0800
     45 H45        -7.6832    0.1382   59.6556 H       1  ZINC000675319328    0.0700
     46 H46        -8.5395    0.6892   58.1941 H       1  ZINC000675319328    0.0400
     47 H47        -7.9005    1.9504   60.5774 H       1  ZINC000675319328    0.0900
     48 H48        -9.4464    2.7756   60.8894 H       1  ZINC000675319328    0.0400
     49 H49       -10.1050    2.8607   63.0951 H       1  ZINC000675319328    0.1300
     50 H50       -10.1404    1.9355   65.3763 H       1  ZINC000675319328    0.1400
     51 H51        -7.8423   -1.4093   64.0517 H       1  ZINC000675319328    0.1400
     52 H52        -7.8134   -0.4834   61.7706 H       1  ZINC000675319328    0.1300
     53 H53       -11.2834    2.0786   60.0237 H       1  ZINC000675319328    0.0900
     54 H54       -10.2645    2.2305   58.5745 H       1  ZINC000675319328    0.0300
     55 H55       -12.4518    0.9668   58.2074 H       1  ZINC000675319328    0.0700
     56 H56       -11.8165   -0.3061   59.2758 H       1  ZINC000675319328    0.0900
@<TRIPOS>BOND
     1     1     2    1
     2     1    29    1
     3     1    30    1
     4     1    31    1
     5     2     3    1
     6     2     4    1
     7     2    11    1
     8     4     5    1
     9     4    32    1
    10     4    33    1
    11     5     6    1
    12     5    10    1
    13     5     7    1
    14     7     8    1
    15     7    34    1
    16     7    35    1
    17     8     9    1
    18     8    36    1
    19     8    37    1
    20     9    10    1
    21    10    38    1
    22    10    39    1
    23    11    12   am
    24    11    40    1
    25    12    13    2
    26    12    14   am
    27    14    28    1
    28    14    15    1
    29    15    16    1
    30    15    41    1
    31    15    42    1
    32    16    17    1
    33    16    43    1
    34    16    44    1
    35    17    18    1
    36    17    45    1
    37    17    46    1
    38    18    19    1
    39    18    27    1
    40    19    20    1
    41    19    47    1
    42    19    48    1
    43    20    26   ar
    44    20    21   ar
    45    21    22   ar
    46    21    49    1
    47    22    23   ar
    48    22    50    1
    49    23    24    1
    50    23    25   ar
    51    25    26   ar
    52    25    51    1
    53    26    52    1
    54    27    28    1
    55    27    53    1
    56    27    54    1
    57    28    55    1
    58    28    56    1
@<TRIPOS>SUBSTRUCTURE
     1 ZINC000675319328        1 TEMP              0 ****  ****    0 ROOT


##########                                Name:    ZINC000098105561
##########                DOCK_Rotatable_Bonds:                   5
##########                         Heavy_Atoms:                  25
##########                    Molecular_Weight:             368.336
##########                DOCK_Rotatable_Bonds:                   5
##########                       Formal_Charge:         2.98023e-08
##########                     HBond_Acceptors:                   9
##########                        HBond_Donors:                   0
##########                         Heavy_Atoms:                  25
##########                          Grid_Score:          -26.402063
##########                     Grid_vdw_energy:          -26.010050
##########                      Grid_es_energy:           -0.392014
##########           Internal_energy_repulsive:           11.547282

@<TRIPOS>MOLECULE
ZINC000098105561
 36 38 1 0 0
SMALL
USER_CHARGES


@<TRIPOS>ATOM
      1 C1        -15.3570   -2.9409   59.5863 C.3     1  ZINC000098105561   -0.0800
      2 C2        -14.2957   -3.1904   58.5461 C.2     1  ZINC000098105561    0.0900
      3 C3        -14.2671   -4.2934   57.7945 C.2     1  ZINC000098105561   -0.2700
      4 S4        -12.8767   -4.1850   56.7181 S.3     1  ZINC000098105561    0.1600
      5 C5        -12.4670   -2.6645   57.3837 C.2     1  ZINC000098105561    0.2500
      6 N6        -11.3805   -1.8933   56.9950 N.am    1  ZINC000098105561   -0.5200
      7 C7        -10.0226   -2.3040   57.3604 C.3     1  ZINC000098105561    0.0500
      8 C8         -9.8686   -2.2600   58.8820 C.3     1  ZINC000098105561    0.4400
      9 F9        -10.1975   -0.9822   59.3473 F       1  ZINC000098105561   -0.1700
     10 F10       -10.7227   -3.2025   59.4647 F       1  ZINC000098105561   -0.1700
     11 F11        -8.5449   -2.5549   59.2255 F       1  ZINC000098105561   -0.1700
     12 C12       -11.5747   -0.7665   56.2814 C.2     1  ZINC000098105561    0.5800
     13 O13       -12.7010   -0.4258   55.9783 O.2     1  ZINC000098105561   -0.4100
     14 C14       -10.4153    0.0565   55.8666 C.2     1  ZINC000098105561    0.0800
     15 C15       -10.1033    0.1213   54.5487 C.2     1  ZINC000098105561   -0.2000
     16 C16        -8.9388    0.9288   54.1474 C.2     1  ZINC000098105561    0.4200
     17 O17        -8.7255    1.2206   52.9839 O.2     1  ZINC000098105561   -0.4300
     18 C18        -8.0452    1.3640   55.2397 C.ar    1  ZINC000098105561   -0.2200
     19 C19        -6.7884    1.9063   54.9800 C.ar    1  ZINC000098105561   -0.0300
     20 C20        -5.9859    2.2931   56.0313 C.ar    1  ZINC000098105561   -0.1400
     21 C21        -6.4264    2.1425   57.3385 C.ar    1  ZINC000098105561   -0.0500
     22 C22        -7.6684    1.6094   57.6079 C.ar    1  ZINC000098105561   -0.1400
     23 C23        -8.4975    1.2154   56.5628 C.ar    1  ZINC000098105561    0.1400
     24 O24        -9.7223    0.7100   56.8091 O.3     1  ZINC000098105561   -0.2300
     25 N25       -13.3225   -2.3339   58.3004 N.2     1  ZINC000098105561   -0.4600
     26 H26       -16.1977   -2.4186   59.1297 H       1  ZINC000098105561    0.0800
     27 H27       -15.6982   -3.8929   59.9929 H       1  ZINC000098105561    0.0800
     28 H28       -14.9428   -2.3306   60.3889 H       1  ZINC000098105561    0.0800
     29 H29       -14.9728   -5.1097   57.8390 H       1  ZINC000098105561    0.1900
     30 H30        -9.8423   -3.3190   57.0062 H       1  ZINC000098105561    0.1700
     31 H31        -9.3023   -1.6260   56.9026 H       1  ZINC000098105561    0.1400
     32 H32       -10.6927   -0.4053   53.8128 H       1  ZINC000098105561    0.1800
     33 H33        -6.4455    2.0224   53.9625 H       1  ZINC000098105561    0.1400
     34 H34        -5.0107    2.7147   55.8372 H       1  ZINC000098105561    0.1400
     35 H35        -5.7880    2.4464   58.1549 H       1  ZINC000098105561    0.1400
     36 H36        -7.9982    1.4979   58.6303 H       1  ZINC000098105561    0.1400
@<TRIPOS>BOND
     1     1     2    1
     2     1    26    1
     3     1    27    1
     4     1    28    1
     5     2    25    1
     6     2     3    2
     7     3     4    1
     8     3    29    1
     9     4     5    1
    10     5     6    1
    11     5    25    2
    12     6     7    1
    13     6    12   am
    14     7     8    1
    15     7    30    1
    16     7    31    1
    17     8     9    1
    18     8    10    1
    19     8    11    1
    20    12    13    2
    21    12    14    1
    22    14    24    1
    23    14    15    2
    24    15    16    1
    25    15    32    1
    26    16    17    2
    27    16    18    1
    28    18    23   ar
    29    18    19   ar
    30    19    20   ar
    31    19    33    1
    32    20    21   ar
    33    20    34    1
    34    21    22   ar
    35    21    35    1
    36    22    23   ar
    37    22    36    1
    38    23    24    1
@<TRIPOS>SUBSTRUCTURE
     1 ZINC000098105561        1 TEMP              0 ****  ****    0 ROOT


##########                                Name:    ZINC000888733009
##########                DOCK_Rotatable_Bonds:                   6
##########                         Heavy_Atoms:                  25
##########                    Molecular_Weight:             360.434
##########                DOCK_Rotatable_Bonds:                   6
##########                       Formal_Charge:        -1.02073e-06
##########                     HBond_Acceptors:                   7
##########                        HBond_Donors:                   2
##########                         Heavy_Atoms:                  25
##########                          Grid_Score:          -26.399757
##########                     Grid_vdw_energy:          -25.823851
##########                      Grid_es_energy:           -0.575907
##########           Internal_energy_repulsive:           22.263918

@<TRIPOS>MOLECULE
ZINC000888733009
 45 48 1 0 0
SMALL
USER_CHARGES


@<TRIPOS>ATOM
      1 C1        -15.4555   -3.4317   58.9868 C.3     1  ZINC000888733009   -0.1500
      2 C2        -14.3954   -2.3418   59.1584 C.3     1  ZINC000888733009    0.0700
      3 H3        -14.8407   -1.4453   59.5897 H       1  ZINC000888733009    0.0700
      4 C4        -13.7353   -2.0138   57.7976 C.3     1  ZINC000888733009   -0.1300
      5 C5        -12.2651   -1.7640   58.1597 C.3     1  ZINC000888733009   -0.1100
      6 C6        -11.2366   -2.5265   57.3283 C.3     1  ZINC000888733009   -0.1300
      7 C7        -10.3614   -1.2624   57.4129 C.3     1  ZINC000888733009    0.1200
      8 N8         -9.6786   -0.9374   56.1582 N.am    1  ZINC000888733009   -0.7100
      9 C9         -8.8352    0.1124   56.1023 C.2     1  ZINC000888733009    0.5900
     10 O10        -8.6396    0.7894   57.0946 O.2     1  ZINC000888733009   -0.5600
     11 C11        -8.1532    0.4386   54.8463 C.2     1  ZINC000888733009   -0.2400
     12 C12        -7.1574    1.3759   54.7448 C.2     1  ZINC000888733009    0.0800
     13 N13        -6.6717    2.1269   55.8024 N.am    1  ZINC000888733009   -0.6100
     14 C14        -5.7001    3.0371   55.5924 C.2     1  ZINC000888733009    0.6000
     15 O15        -5.2507    3.2003   54.4732 O.2     1  ZINC000888733009   -0.4900
     16 C16        -5.1848    3.8307   56.7120 C.2     1  ZINC000888733009   -0.0900
     17 C17        -4.2109    4.7854   56.6380 C.2     1  ZINC000888733009   -0.1000
     18 C18        -4.0353    5.2843   57.9380 C.2     1  ZINC000888733009   -0.2300
     19 C19        -4.8986    4.6210   58.7387 C.2     1  ZINC000888733009    0.0100
     20 O20        -5.5935    3.7501   57.9953 O.3     1  ZINC000888733009   -0.1600
     21 S21        -6.5990    1.4894   53.1384 S.3     1  ZINC000888733009    0.3000
     22 C22        -7.7175    0.2579   52.5803 C.2     1  ZINC000888733009   -0.2800
     23 C23        -8.4547   -0.1980   53.5829 C.2     1  ZINC000888733009   -0.0900
     24 C24       -11.6609   -0.4656   57.6312 C.3     1  ZINC000888733009   -0.1400
     25 C25       -12.1837   -1.9708   59.6780 C.3     1  ZINC000888733009    0.0700
     26 O26       -13.3151   -2.8178   59.9920 O.3     1  ZINC000888733009   -0.3700
     27 H27       -15.8915   -3.6703   59.9569 H       1  ZINC000888733009    0.0600
     28 H28       -16.2365   -3.0763   58.3148 H       1  ZINC000888733009    0.0700
     29 H29       -14.9934   -4.3250   58.5666 H       1  ZINC000888733009    0.0600
     30 H30       -13.8237   -2.8591   57.1150 H       1  ZINC000888733009    0.0800
     31 H31       -14.1801   -1.1194   57.3615 H       1  ZINC000888733009    0.0800
     32 H32       -10.8110   -3.3886   57.8419 H       1  ZINC000888733009    0.0800
     33 H33       -11.5751   -2.7578   56.3183 H       1  ZINC000888733009    0.0900
     34 H34        -9.6924   -1.2520   58.2733 H       1  ZINC000888733009    0.1200
     35 H35        -9.8335   -1.4777   55.3677 H       1  ZINC000888733009    0.4000
     36 H36        -7.0308    1.9977   56.6942 H       1  ZINC000888733009    0.4400
     37 H37        -3.6787    5.0959   55.7510 H       1  ZINC000888733009    0.1700
     38 H38        -3.3406    6.0536   58.2416 H       1  ZINC000888733009    0.1600
     39 H39        -5.0127    4.7715   59.8020 H       1  ZINC000888733009    0.2200
     40 H40        -7.7921   -0.0850   51.5590 H       1  ZINC000888733009    0.1700
     41 H41        -9.2096   -0.9615   53.4668 H       1  ZINC000888733009    0.1500
     42 H42       -12.1194   -0.1141   56.7069 H       1  ZINC000888733009    0.0900
     43 H43       -11.5737    0.3156   58.3863 H       1  ZINC000888733009    0.0800
     44 H44       -11.2506   -2.4670   59.9448 H       1  ZINC000888733009    0.0900
     45 H45       -12.2698   -1.0162   60.1970 H       1  ZINC000888733009    0.0700
@<TRIPOS>BOND
     1     1     2    1
     2     1    27    1
     3     1    28    1
     4     1    29    1
     5     2     3    1
     6     2    26    1
     7     2     4    1
     8     4     5    1
     9     4    30    1
    10     4    31    1
    11     5    24    1
    12     5     6    1
    13     5    25    1
    14     6     7    1
    15     6    32    1
    16     6    33    1
    17     7     8    1
    18     7    24    1
    19     7    34    1
    20     8     9   am
    21     8    35    1
    22     9    10    2
    23     9    11    1
    24    11    23    1
    25    11    12    2
    26    12    13    1
    27    12    21    1
    28    13    14   am
    29    13    36    1
    30    14    15    2
    31    14    16    1
    32    16    20    1
    33    16    17    2
    34    17    18    1
    35    17    37    1
    36    18    19    2
    37    18    38    1
    38    19    20    1
    39    19    39    1
    40    21    22    1
    41    22    23    2
    42    22    40    1
    43    23    41    1
    44    24    42    1
    45    24    43    1
    46    25    26    1
    47    25    44    1
    48    25    45    1
@<TRIPOS>SUBSTRUCTURE
     1 ZINC000888733009        1 TEMP              0 ****  ****    0 ROOT


##########                                Name:    ZINC000337709254
##########                DOCK_Rotatable_Bonds:                   7
##########                         Heavy_Atoms:                  22
##########                    Molecular_Weight:              329.42
##########                DOCK_Rotatable_Bonds:                   7
##########                       Formal_Charge:           0.0300004
##########                     HBond_Acceptors:                   8
##########                        HBond_Donors:                   2
##########                         Heavy_Atoms:                  22
##########                          Grid_Score:          -26.396486
##########                     Grid_vdw_energy:          -25.431250
##########                      Grid_es_energy:           -0.965236
##########           Internal_energy_repulsive:           10.300135

@<TRIPOS>MOLECULE
ZINC000337709254
 45 46 1 0 0
SMALL
USER_CHARGES


@<TRIPOS>ATOM
      1 C1         -9.4120   -0.4091   60.8273 C.3     1  ZINC000337709254   -0.6700
      2 S2         -8.8918   -0.6959   59.1133 S.o2    1  ZINC000337709254    2.6100
      3 O3         -7.4817   -0.5679   58.9922 O.2     1  ZINC000337709254   -0.9500
      4 O4         -9.5758   -1.8144   58.5653 O.2     1  ZINC000337709254   -0.9500
      5 N5         -9.4929    0.6005   58.2766 N.am    1  ZINC000337709254   -1.1200
      6 C6         -9.2644    0.7108   56.8338 C.3     1  ZINC000337709254    0.1200
      7 C7        -10.4708    0.1450   56.0816 C.3     1  ZINC000337709254   -0.1100
      8 H8        -10.7053   -0.8580   56.4381 H       1  ZINC000337709254    0.1100
      9 C9        -11.6965    1.0781   56.2430 C.3     1  ZINC000337709254   -0.1200
     10 C10       -12.5593    0.7260   55.0058 C.3     1  ZINC000337709254   -0.1200
     11 C11       -11.5303    0.5016   53.8785 C.3     1  ZINC000337709254   -0.1400
     12 C12       -10.2011    0.1289   54.5628 C.3     1  ZINC000337709254    0.1500
     13 H13        -9.8843   -0.8650   54.2468 H       1  ZINC000337709254    0.1000
     14 N14        -9.1703    1.1141   54.2269 N.am    1  ZINC000337709254   -0.7200
     15 C15        -8.3540    0.9037   53.1754 C.2     1  ZINC000337709254    0.5300
     16 O16        -8.4720   -0.1021   52.5079 O.2     1  ZINC000337709254   -0.5100
     17 C17        -7.2949    1.9181   52.8287 C.3     1  ZINC000337709254    0.0200
     18 C18        -7.9107    3.0492   52.1161 C.1     1  ZINC000337709254    0.2000
     19 N19        -8.3860    3.9223   51.5660 N.1     1  ZINC000337709254   -0.3900
     20 C20        -6.6275    2.4211   54.1124 C.3     1  ZINC000337709254   -0.1500
     21 C21        -5.5010    3.3910   53.7464 C.3     1  ZINC000337709254    0.0600
     22 O22        -4.5655    2.7315   52.8908 O.3     1  ZINC000337709254   -0.3700
     23 C23        -5.1226    2.2812   51.6543 C.3     1  ZINC000337709254    0.0600
     24 C24        -6.2340    1.2667   51.9362 C.3     1  ZINC000337709254   -0.1300
     25 H25        -8.9935    0.5331   61.1812 H       1  ZINC000337709254    0.1300
     26 H26       -10.5001   -0.3637   60.8740 H       1  ZINC000337709254    0.1300
     27 H27        -9.0551   -1.2243   61.4567 H       1  ZINC000337709254    0.1300
     28 H28        -9.9963    1.2869   58.7418 H       1  ZINC000337709254    0.4200
     29 H29        -9.1285    1.7587   56.5664 H       1  ZINC000337709254    0.0600
     30 H30        -8.3710    0.1479   56.5633 H       1  ZINC000337709254    0.0900
     31 H31       -12.2335    0.8544   57.1648 H       1  ZINC000337709254    0.0800
     32 H32       -11.3918    2.1243   56.2164 H       1  ZINC000337709254    0.0700
     33 H33       -13.1319   -0.1837   55.1864 H       1  ZINC000337709254    0.0700
     34 H34       -13.2241    1.5530   54.7564 H       1  ZINC000337709254    0.0700
     35 H35       -11.8566   -0.3130   53.2319 H       1  ZINC000337709254    0.0800
     36 H36       -11.4091    1.4151   53.2965 H       1  ZINC000337709254    0.0700
     37 H37        -9.0751    1.9180   54.7615 H       1  ZINC000337709254    0.4000
     38 H38        -7.3648    2.9352   54.7289 H       1  ZINC000337709254    0.0900
     39 H39        -6.2156    1.5761   54.6641 H       1  ZINC000337709254    0.1100
     40 H40        -5.9188    4.2554   53.2303 H       1  ZINC000337709254    0.0500
     41 H41        -4.9946    3.7193   54.6541 H       1  ZINC000337709254    0.1100
     42 H42        -5.5356    3.1311   51.1108 H       1  ZINC000337709254    0.0500
     43 H43        -4.3437    1.8099   51.0549 H       1  ZINC000337709254    0.1100
     44 H44        -5.8141    0.3983   52.4440 H       1  ZINC000337709254    0.1100
     45 H45        -6.6899    0.9553   50.9965 H       1  ZINC000337709254    0.0900
@<TRIPOS>BOND
     1     1     2    1
     2     1    25    1
     3     1    26    1
     4     1    27    1
     5     2     3    2
     6     2     4    2
     7     2     5   am
     8     5     6    1
     9     5    28    1
    10     6     7    1
    11     6    29    1
    12     6    30    1
    13     7     8    1
    14     7    12    1
    15     7     9    1
    16     9    10    1
    17     9    31    1
    18     9    32    1
    19    10    11    1
    20    10    33    1
    21    10    34    1
    22    11    12    1
    23    11    35    1
    24    11    36    1
    25    12    13    1
    26    12    14    1
    27    14    15   am
    28    14    37    1
    29    15    16    2
    30    15    17    1
    31    17    24    1
    32    17    18    1
    33    17    20    1
    34    18    19    3
    35    20    21    1
    36    20    38    1
    37    20    39    1
    38    21    22    1
    39    21    40    1
    40    21    41    1
    41    22    23    1
    42    23    24    1
    43    23    42    1
    44    23    43    1
    45    24    44    1
    46    24    45    1
@<TRIPOS>SUBSTRUCTURE
     1 ZINC000337709254        1 TEMP              0 ****  ****    0 ROOT


##########                                Name:    ZINC000129637895
##########                DOCK_Rotatable_Bonds:                   7
##########                         Heavy_Atoms:                  26
##########                    Molecular_Weight:             374.464
##########                DOCK_Rotatable_Bonds:                   7
##########                       Formal_Charge:        -5.51343e-07
##########                     HBond_Acceptors:                   8
##########                        HBond_Donors:                   1
##########                         Heavy_Atoms:                  26
##########                          Grid_Score:          -26.365812
##########                     Grid_vdw_energy:          -26.432552
##########                      Grid_es_energy:            0.066740
##########           Internal_energy_repulsive:           28.303259

@<TRIPOS>MOLECULE
ZINC000129637895
 48 50 1 0 0
SMALL
USER_CHARGES


@<TRIPOS>ATOM
      1 C1         -0.1030    2.5230   59.7688 C.3     1  ZINC000129637895   -0.1500
      2 C2         -1.5377    2.2133   59.3370 C.3     1  ZINC000129637895   -0.0500
      3 C3         -1.7310    2.6292   57.9015 C.2     1  ZINC000129637895    0.0300
      4 C4         -2.9145    3.0440   57.4149 C.2     1  ZINC000129637895   -0.0200
      5 N5         -4.1050    3.1517   58.1326 N.am    1  ZINC000129637895   -0.5900
      6 C6         -5.0869    3.9626   57.6911 C.2     1  ZINC000129637895    0.5000
      7 O7         -4.9353    4.5981   56.6678 O.2     1  ZINC000129637895   -0.4800
      8 C8         -6.3607    4.0792   58.4604 C.2     1  ZINC000129637895    0.5200
      9 O9         -6.4384    4.8534   59.3919 O.2     1  ZINC000129637895   -0.5100
     10 N10        -7.4247    3.3249   58.1205 N.am    1  ZINC000129637895   -0.5800
     11 C11        -7.3501    2.3762   56.9991 C.3     1  ZINC000129637895    0.0800
     12 C12        -7.8424    1.0088   57.4846 C.3     1  ZINC000129637895    0.0400
     13 N13        -9.1747    1.1567   58.0857 N.3     1  ZINC000129637895   -0.4900
     14 C14        -9.7266   -0.0892   58.3923 C.ar    1  ZINC000129637895    0.1500
     15 C15        -9.6196   -0.5994   59.6801 C.ar    1  ZINC000129637895   -0.2100
     16 C16       -10.1660   -1.8316   59.9833 C.ar    1  ZINC000129637895   -0.0500
     17 C17       -10.8194   -2.5596   59.0074 C.ar    1  ZINC000129637895   -0.2300
     18 C18       -10.9294   -2.0548   57.7190 C.ar    1  ZINC000129637895    0.1500
     19 O19       -11.5728   -2.7719   56.7605 O.3     1  ZINC000129637895   -0.3200
     20 C20       -12.1855   -3.9967   57.1683 C.3     1  ZINC000129637895    0.0300
     21 C21       -10.3877   -0.8169   57.4121 C.ar    1  ZINC000129637895   -0.1700
     22 C22        -9.1306    2.0197   59.2735 C.3     1  ZINC000129637895    0.0400
     23 C23        -8.6892    3.4242   58.8650 C.3     1  ZINC000129637895    0.1100
     24 S24        -2.6925    3.4281   55.7097 S.3     1  ZINC000129637895    0.2400
     25 C25        -1.0419    2.9964   55.8171 C.2     1  ZINC000129637895   -0.0300
     26 N26        -0.7537    2.6227   57.0175 N.2     1  ZINC000129637895   -0.4500
     27 H27         0.5938    1.9747   59.1347 H       1  ZINC000129637895    0.0600
     28 H28         0.0827    3.5927   59.6725 H       1  ZINC000129637895    0.0500
     29 H29         0.0368    2.2222   60.8072 H       1  ZINC000129637895    0.0700
     30 H30        -1.7234    1.1436   59.4335 H       1  ZINC000129637895    0.0900
     31 H31        -2.2344    2.7616   59.9711 H       1  ZINC000129637895    0.0700
     32 H32        -4.2266    2.6430   58.9494 H       1  ZINC000129637895    0.4300
     33 H33        -7.9826    2.7242   56.1824 H       1  ZINC000129637895    0.0900
     34 H34        -6.3183    2.2937   56.6572 H       1  ZINC000129637895    0.1400
     35 H35        -7.8984    0.3216   56.6405 H       1  ZINC000129637895    0.1000
     36 H36        -7.1494    0.6158   58.2286 H       1  ZINC000129637895    0.0500
     37 H37        -9.1088   -0.0328   60.4445 H       1  ZINC000129637895    0.1300
     38 H38       -10.0820   -2.2267   60.9848 H       1  ZINC000129637895    0.1300
     39 H39       -11.2449   -3.5228   59.2473 H       1  ZINC000129637895    0.1300
     40 H40       -11.4264   -4.6653   57.5742 H       1  ZINC000129637895    0.0600
     41 H41       -12.9348   -3.7912   57.9327 H       1  ZINC000129637895    0.0600
     42 H42       -12.6628   -4.4679   56.3091 H       1  ZINC000129637895    0.1000
     43 H43       -10.4726   -0.4224   56.4103 H       1  ZINC000129637895    0.1300
     44 H44       -10.1209    2.0656   59.7267 H       1  ZINC000129637895    0.1000
     45 H45        -8.4197    1.6128   59.9926 H       1  ZINC000129637895    0.0500
     46 H46        -8.5446    4.0360   59.7555 H       1  ZINC000129637895    0.1100
     47 H47        -9.4486    3.8756   58.2266 H       1  ZINC000129637895    0.0900
     48 H48        -0.3395    3.0351   54.9977 H       1  ZINC000129637895    0.2000
@<TRIPOS>BOND
     1     1     2    1
     2     1    27    1
     3     1    28    1
     4     1    29    1
     5     2     3    1
     6     2    30    1
     7     2    31    1
     8     3    26    1
     9     3     4    2
    10     4     5    1
    11     4    24    1
    12     5     6   am
    13     5    32    1
    14     6     7    2
    15     6     8    1
    16     8     9    2
    17     8    10   am
    18    10    23    1
    19    10    11    1
    20    11    12    1
    21    11    33    1
    22    11    34    1
    23    12    13    1
    24    12    35    1
    25    12    36    1
    26    13    14    1
    27    13    22    1
    28    14    21   ar
    29    14    15   ar
    30    15    16   ar
    31    15    37    1
    32    16    17   ar
    33    16    38    1
    34    17    18   ar
    35    17    39    1
    36    18    19    1
    37    18    21   ar
    38    19    20    1
    39    20    40    1
    40    20    41    1
    41    20    42    1
    42    21    43    1
    43    22    23    1
    44    22    44    1
    45    22    45    1
    46    23    46    1
    47    23    47    1
    48    24    25    1
    49    25    26    2
    50    25    48    1
@<TRIPOS>SUBSTRUCTURE
     1 ZINC000129637895        1 TEMP              0 ****  ****    0 ROOT


##########                                Name:    ZINC000650955167
##########                DOCK_Rotatable_Bonds:                   9
##########                         Heavy_Atoms:                  26
##########                    Molecular_Weight:             361.484
##########                DOCK_Rotatable_Bonds:                   9
##########                       Formal_Charge:        -7.07805e-07
##########                     HBond_Acceptors:                   6
##########                        HBond_Donors:                   2
##########                         Heavy_Atoms:                  26
##########                          Grid_Score:          -26.356245
##########                     Grid_vdw_energy:          -24.446339
##########                      Grid_es_energy:           -1.909906
##########           Internal_energy_repulsive:           28.165833

@<TRIPOS>MOLECULE
ZINC000650955167
 57 59 1 0 0
SMALL
USER_CHARGES


@<TRIPOS>ATOM
      1 C1        -11.1968    1.0110   53.8989 C.3     1  ZINC000650955167    0.0200
      2 O2         -9.9857    1.0457   54.6567 O.3     1  ZINC000650955167   -0.3200
      3 C3         -8.8228    0.9015   53.9684 C.ar    1  ZINC000650955167    0.1300
      4 C4         -8.6618   -0.1611   53.0916 C.ar    1  ZINC000650955167   -0.2000
      5 C5         -7.4787   -0.3052   52.3925 C.ar    1  ZINC000650955167   -0.0800
      6 C6         -6.4559    0.6083   52.5668 C.ar    1  ZINC000650955167   -0.1500
      7 C7         -6.6137    1.6682   53.4409 C.ar    1  ZINC000650955167   -0.0800
      8 C8         -7.7968    1.8202   54.1374 C.ar    1  ZINC000650955167   -0.1100
      9 C9         -7.9685    2.9758   55.0892 C.3     1  ZINC000650955167   -0.0800
     10 C10        -7.4140    2.5921   56.4626 C.3     1  ZINC000650955167    0.1800
     11 H11        -6.6682    1.8057   56.3465 H       1  ZINC000650955167    0.0900
     12 N12        -8.5054    2.1086   57.3120 N.am    1  ZINC000650955167   -0.7300
     13 C13        -8.3705    0.9507   57.9886 C.2     1  ZINC000650955167    0.7400
     14 O14        -7.3436    0.3068   57.8928 O.2     1  ZINC000650955167   -0.5800
     15 N15        -9.3738    0.5068   58.7713 N.am    1  ZINC000650955167   -0.6700
     16 C16       -10.7219    0.9721   59.1307 C.3     1  ZINC000650955167    0.1100
     17 C17       -10.5726    0.2110   60.4552 C.3     1  ZINC000650955167    0.0300
     18 N18       -11.7893   -0.4894   60.8879 N.3     1  ZINC000650955167   -0.5100
     19 C19       -12.1995   -1.5028   59.8926 C.3     1  ZINC000650955167    0.0400
     20 C20       -13.7473   -1.5146   59.9549 C.3     1  ZINC000650955167   -0.1600
     21 C21       -14.0634   -0.0123   60.1777 C.3     1  ZINC000650955167    0.0800
     22 H22       -14.0570    0.5275   59.2308 H       1  ZINC000650955167    0.0600
     23 O23       -15.3198    0.1470   60.8397 O.3     1  ZINC000650955167   -0.5600
     24 C24       -12.9034    0.4569   61.0809 C.3     1  ZINC000650955167    0.0500
     25 C25        -9.6050   -0.6597   59.6368 C.3     1  ZINC000650955167    0.1400
     26 C26        -6.7669    3.8170   57.1118 C.3     1  ZINC000650955167   -0.1100
     27 C27        -6.7200    3.6251   58.6291 C.3     1  ZINC000650955167   -0.1400
     28 C28        -5.3442    3.9869   56.5750 C.3     1  ZINC000650955167   -0.1500
     29 H29       -12.0479    1.1374   54.5680 H       1  ZINC000650955167    0.1000
     30 H30       -11.1892    1.8167   53.1647 H       1  ZINC000650955167    0.0600
     31 H31       -11.2770    0.0527   53.3858 H       1  ZINC000650955167    0.0600
     32 H32        -9.4603   -0.8754   52.9555 H       1  ZINC000650955167    0.1300
     33 H33        -7.3528   -1.1324   51.7097 H       1  ZINC000650955167    0.1200
     34 H34        -5.5317    0.4938   52.0198 H       1  ZINC000650955167    0.1200
     35 H35        -5.8130    2.3804   53.5755 H       1  ZINC000650955167    0.1300
     36 H36        -7.4287    3.8431   54.7089 H       1  ZINC000650955167    0.0900
     37 H37        -9.0274    3.2179   55.1796 H       1  ZINC000650955167    0.0800
     38 H38        -9.3250    2.6218   57.3875 H       1  ZINC000650955167    0.4000
     39 H39       -10.7889    2.0528   59.2562 H       1  ZINC000650955167    0.0700
     40 H40       -11.5050    0.5727   58.4864 H       1  ZINC000650955167    0.0900
     41 H41       -10.1011    0.7872   61.2513 H       1  ZINC000650955167    0.0900
     42 H42       -11.8620   -1.2152   58.8969 H       1  ZINC000650955167    0.0500
     43 H43       -11.8014   -2.4813   60.1612 H       1  ZINC000650955167    0.0900
     44 H44       -14.1732   -1.8682   59.0159 H       1  ZINC000650955167    0.0800
     45 H45       -14.0997   -2.1162   60.7928 H       1  ZINC000650955167    0.0900
     46 H46       -16.0700   -0.2218   60.3535 H       1  ZINC000650955167    0.3800
     47 H47       -13.2193    0.4499   62.1241 H       1  ZINC000650955167    0.0900
     48 H48       -12.5914    1.4607   60.7924 H       1  ZINC000650955167    0.0700
     49 H49       -10.0931   -1.4913   59.1289 H       1  ZINC000650955167    0.0900
     50 H50        -8.7198   -0.9664   60.1940 H       1  ZINC000650955167    0.0800
     51 H51        -7.3527    4.7054   56.8759 H       1  ZINC000650955167    0.0700
     52 H52        -6.1341    2.7367   58.8650 H       1  ZINC000650955167    0.0600
     53 H53        -6.2588    4.4978   59.0915 H       1  ZINC000650955167    0.0400
     54 H54        -7.7334    3.5041   59.0114 H       1  ZINC000650955167    0.0500
     55 H55        -5.3776    4.1235   55.4941 H       1  ZINC000650955167    0.0600
     56 H56        -4.8831    4.8595   57.0375 H       1  ZINC000650955167    0.0600
     57 H57        -4.7584    3.0984   56.8109 H       1  ZINC000650955167    0.0600
@<TRIPOS>BOND
     1     1     2    1
     2     1    29    1
     3     1    30    1
     4     1    31    1
     5     2     3    1
     6     3     8   ar
     7     3     4   ar
     8     4     5   ar
     9     4    32    1
    10     5     6   ar
    11     5    33    1
    12     6     7   ar
    13     6    34    1
    14     7     8   ar
    15     7    35    1
    16     8     9    1
    17     9    10    1
    18     9    36    1
    19     9    37    1
    20    10    11    1
    21    10    12    1
    22    10    26    1
    23    12    13   am
    24    12    38    1
    25    13    14    2
    26    13    15   am
    27    15    25    1
    28    15    16    1
    29    16    17    1
    30    16    39    1
    31    16    40    1
    32    17    18    1
    33    17    25    1
    34    17    41    1
    35    18    24    1
    36    18    19    1
    37    19    20    1
    38    19    42    1
    39    19    43    1
    40    20    21    1
    41    20    44    1
    42    20    45    1
    43    21    22    1
    44    21    23    1
    45    21    24    1
    46    23    46    1
    47    24    47    1
    48    24    48    1
    49    25    49    1
    50    25    50    1
    51    26    27    1
    52    26    28    1
    53    26    51    1
    54    27    52    1
    55    27    53    1
    56    27    54    1
    57    28    55    1
    58    28    56    1
    59    28    57    1
@<TRIPOS>SUBSTRUCTURE
     1 ZINC000650955167        1 TEMP              0 ****  ****    0 ROOT


##########                                Name:    ZINC001074839487
##########                DOCK_Rotatable_Bonds:                   7
##########                         Heavy_Atoms:                  25
##########                    Molecular_Weight:             344.454
##########                DOCK_Rotatable_Bonds:                   7
##########                       Formal_Charge:          -0.0500005
##########                     HBond_Acceptors:                   5
##########                        HBond_Donors:                   1
##########                         Heavy_Atoms:                  25
##########                          Grid_Score:          -26.353762
##########                     Grid_vdw_energy:          -26.444227
##########                      Grid_es_energy:            0.090465
##########           Internal_energy_repulsive:           92.650024

@<TRIPOS>MOLECULE
ZINC001074839487
 53 55 1 0 0
SMALL
USER_CHARGES


@<TRIPOS>ATOM
      1 C1        -10.7477   -2.6171   56.5406 C.3     1  ZINC001074839487   -0.1500
      2 C2        -11.9475   -3.0849   57.3668 C.3     1  ZINC001074839487   -0.1300
      3 C3        -12.0961   -2.1926   58.6007 C.3     1  ZINC001074839487   -0.1100
      4 C4        -11.0367   -2.5742   59.6366 C.3     1  ZINC001074839487   -0.1400
      5 C5        -10.2107   -1.3616   59.9804 C.2     1  ZINC001074839487    0.5100
      6 O6        -10.0921   -1.0167   61.1371 O.2     1  ZINC001074839487   -0.5400
      7 N7         -9.6036   -0.6603   59.0026 N.am    1  ZINC001074839487   -0.7300
      8 C8         -8.8021    0.5195   59.3367 C.3     1  ZINC001074839487    0.1400
      9 H9         -8.4114    0.4183   60.3492 H       1  ZINC001074839487    0.0900
     10 C10        -7.6379    0.6409   58.3507 C.3     1  ZINC001074839487   -0.1500
     11 C11        -8.1899    0.7485   56.9258 C.3     1  ZINC001074839487    0.0700
     12 N12        -9.1452    1.8635   56.8716 N.am    1  ZINC001074839487   -0.6000
     13 C13        -9.0077    2.8417   55.9547 C.2     1  ZINC001074839487    0.5600
     14 O14        -9.8048    3.7586   55.9200 O.2     1  ZINC001074839487   -0.5200
     15 C15        -7.8875    2.7992   54.9908 C.ar    1  ZINC001074839487   -0.1300
     16 C16        -6.7601    3.5971   55.1912 C.ar    1  ZINC001074839487   -0.1000
     17 C17        -5.7170    3.5536   54.2881 C.ar    1  ZINC001074839487   -0.1000
     18 C18        -5.7878    2.7224   53.1876 C.ar    1  ZINC001074839487   -0.1100
     19 C19        -4.8340    2.4560   52.0459 C.3     1  ZINC001074839487    0.0900
     20 O20        -5.6179    1.8326   51.0124 O.3     1  ZINC001074839487   -0.3600
     21 C21        -6.6743    1.1469   51.7092 C.3     1  ZINC001074839487    0.0900
     22 C22        -6.9063    1.9266   52.9826 C.ar    1  ZINC001074839487   -0.1400
     23 C23        -7.9507    1.9564   53.8789 C.ar    1  ZINC001074839487   -0.0400
     24 C24       -10.2529    1.8922   57.8364 C.3     1  ZINC001074839487    0.1500
     25 H25       -10.9270    1.0576   57.6437 H       1  ZINC001074839487    0.0700
     26 C26       -11.0150    3.2122   57.7032 C.3     1  ZINC001074839487   -0.1400
     27 C27        -9.6779    1.7717   59.2512 C.3     1  ZINC001074839487   -0.1400
     28 H28       -10.9033   -1.5851   56.2261 H       1  ZINC001074839487    0.0500
     29 H29       -10.6418   -3.2528   55.6616 H       1  ZINC001074839487    0.0500
     30 H30        -9.8432   -2.6801   57.1456 H       1  ZINC001074839487    0.0500
     31 H31       -12.8520   -3.0219   56.7618 H       1  ZINC001074839487    0.0600
     32 H32       -11.7918   -4.1169   57.6813 H       1  ZINC001074839487    0.0600
     33 H33       -11.9639   -1.1496   58.3130 H       1  ZINC001074839487    0.0700
     34 H34       -13.0890   -2.3282   59.0296 H       1  ZINC001074839487    0.0700
     35 H35       -11.5261   -2.9474   60.5362 H       1  ZINC001074839487    0.0900
     36 H36       -10.3902   -3.3498   59.2263 H       1  ZINC001074839487    0.0900
     37 H37        -9.6976   -0.9368   58.0776 H       1  ZINC001074839487    0.4000
     38 H38        -7.0555    1.5323   58.5835 H       1  ZINC001074839487    0.0800
     39 H39        -7.0017   -0.2407   58.4288 H       1  ZINC001074839487    0.0800
     40 H40        -7.3717    0.9343   56.2300 H       1  ZINC001074839487    0.1200
     41 H41        -8.6958   -0.1794   56.6588 H       1  ZINC001074839487    0.0700
     42 H42        -6.7036    4.2472   56.0519 H       1  ZINC001074839487    0.1500
     43 H43        -4.8441    4.1704   54.4426 H       1  ZINC001074839487    0.1400
     44 H44        -4.4113    3.3929   51.6833 H       1  ZINC001074839487    0.1000
     45 H45        -4.0384    1.7850   52.3701 H       1  ZINC001074839487    0.0800
     46 H46        -7.5804    1.1390   51.1033 H       1  ZINC001074839487    0.1000
     47 H47        -6.3694    0.1270   51.9434 H       1  ZINC001074839487    0.0800
     48 H48        -8.8183    1.3330   53.7206 H       1  ZINC001074839487    0.1400
     49 H49       -11.5123    3.2484   56.7339 H       1  ZINC001074839487    0.0800
     50 H50       -11.7594    3.2836   58.4964 H       1  ZINC001074839487    0.0500
     51 H51       -10.3164    4.0449   57.7845 H       1  ZINC001074839487    0.0700
     52 H52       -10.4934    1.6950   59.9702 H       1  ZINC001074839487    0.0900
     53 H53        -9.0761    2.6524   59.4755 H       1  ZINC001074839487    0.0900
@<TRIPOS>BOND
     1     1     2    1
     2     1    28    1
     3     1    29    1
     4     1    30    1
     5     2     3    1
     6     2    31    1
     7     2    32    1
     8     3     4    1
     9     3    33    1
    10     3    34    1
    11     4     5    1
    12     4    35    1
    13     4    36    1
    14     5     6    2
    15     5     7   am
    16     7     8    1
    17     7    37    1
    18     8     9    1
    19     8    27    1
    20     8    10    1
    21    10    11    1
    22    10    38    1
    23    10    39    1
    24    11    12    1
    25    11    40    1
    26    11    41    1
    27    12    13   am
    28    12    24    1
    29    13    14    2
    30    13    15    1
    31    15    23   ar
    32    15    16   ar
    33    16    17   ar
    34    16    42    1
    35    17    18   ar
    36    17    43    1
    37    18    22   ar
    38    18    19    1
    39    19    20    1
    40    19    44    1
    41    19    45    1
    42    20    21    1
    43    21    22    1
    44    21    46    1
    45    21    47    1
    46    22    23   ar
    47    23    48    1
    48    24    25    1
    49    24    26    1
    50    24    27    1
    51    26    49    1
    52    26    50    1
    53    26    51    1
    54    27    52    1
    55    27    53    1
@<TRIPOS>SUBSTRUCTURE
     1 ZINC001074839487        1 TEMP              0 ****  ****    0 ROOT


##########                                Name:    ZINC001341052241
##########                DOCK_Rotatable_Bonds:                   7
##########                         Heavy_Atoms:                  24
##########                    Molecular_Weight:             336.478
##########                DOCK_Rotatable_Bonds:                   7
##########                       Formal_Charge:         5.96046e-08
##########                     HBond_Acceptors:                   6
##########                        HBond_Donors:                   0
##########                         Heavy_Atoms:                  24
##########                          Grid_Score:          -26.346113
##########                     Grid_vdw_energy:          -25.855320
##########                      Grid_es_energy:           -0.490794
##########           Internal_energy_repulsive:           10.595778

@<TRIPOS>MOLECULE
ZINC001341052241
 56 58 1 0 0
SMALL
USER_CHARGES


@<TRIPOS>ATOM
      1 C1         -9.5651    1.4184   54.2573 C.3     1  ZINC001341052241   -0.1700
      2 C2         -8.7416    0.2213   54.7364 C.3     1  ZINC001341052241    0.1100
      3 N3         -8.5275    0.3231   56.1821 N.pl3   1  ZINC001341052241   -0.4500
      4 C4         -7.5779    1.0675   56.8256 C.2     1  ZINC001341052241    0.1800
      5 C5         -6.5427    1.9492   56.1761 C.3     1  ZINC001341052241    0.1500
      6 O6         -5.4142    2.0771   57.0433 O.3     1  ZINC001341052241   -0.3700
      7 C7         -4.3415    2.8437   56.4920 C.3     1  ZINC001341052241    0.0900
      8 C8         -3.1938    2.9140   57.5012 C.3     1  ZINC001341052241   -0.1400
      9 C9         -2.0452    3.7346   56.9109 C.3     1  ZINC001341052241   -0.1200
     10 C10        -2.5372    5.1493   56.5987 C.3     1  ZINC001341052241   -0.1200
     11 C11        -3.6850    5.0790   55.5895 C.3     1  ZINC001341052241   -0.1200
     12 C12        -4.8335    4.2583   56.1797 C.3     1  ZINC001341052241   -0.1200
     13 N13        -7.7346    0.8737   58.1045 N.2     1  ZINC001341052241   -0.2600
     14 N14        -8.7146    0.0682   58.3114 N.2     1  ZINC001341052241   -0.3100
     15 C15        -9.2339   -0.3056   57.1658 C.2     1  ZINC001341052241    0.3500
     16 N16       -10.3017   -1.1708   56.9886 N.3     1  ZINC001341052241   -0.4600
     17 C17       -10.1016   -2.4150   57.7424 C.3     1  ZINC001341052241    0.0700
     18 C18       -11.2241   -3.4007   57.4097 C.3     1  ZINC001341052241   -0.1100
     19 C19       -12.5724   -2.7729   57.7733 C.3     1  ZINC001341052241   -0.0900
     20 C20       -13.7025   -3.7292   57.3867 C.3     1  ZINC001341052241    0.0700
     21 O21       -14.9611   -3.0767   57.5663 O.3     1  ZINC001341052241   -0.3900
     22 C22       -15.4399   -3.0980   58.9125 C.3     1  ZINC001341052241    0.0300
     23 C23       -12.7347   -1.4546   57.0117 C.3     1  ZINC001341052241   -0.1100
     24 C24       -11.5686   -0.5253   57.3560 C.3     1  ZINC001341052241    0.0700
     25 H25       -10.5240    1.4303   54.7752 H       1  ZINC001341052241    0.0600
     26 H26        -9.0247    2.3404   54.4718 H       1  ZINC001341052241    0.0700
     27 H27        -9.7331    1.3373   53.1833 H       1  ZINC001341052241    0.0800
     28 H28        -7.7785    0.2152   54.2260 H       1  ZINC001341052241    0.0900
     29 H29        -9.2772   -0.7012   54.5125 H       1  ZINC001341052241    0.1000
     30 H30        -6.2271    1.5045   55.2323 H       1  ZINC001341052241    0.0900
     31 H31        -6.9704    2.9341   55.9886 H       1  ZINC001341052241    0.0700
     32 H32        -3.9906    2.3703   55.5749 H       1  ZINC001341052241    0.0600
     33 H33        -3.5446    3.3873   58.4182 H       1  ZINC001341052241    0.0700
     34 H34        -2.8432    1.9061   57.7236 H       1  ZINC001341052241    0.0700
     35 H35        -1.6942    3.2613   55.9939 H       1  ZINC001341052241    0.0600
     36 H36        -1.2275    3.7847   57.6300 H       1  ZINC001341052241    0.0700
     37 H37        -1.7189    5.7340   56.1782 H       1  ZINC001341052241    0.0600
     38 H38        -2.8882    5.6226   57.5157 H       1  ZINC001341052241    0.0600
     39 H39        -3.3340    4.6057   54.6724 H       1  ZINC001341052241    0.0600
     40 H40        -4.0354    6.0869   55.3671 H       1  ZINC001341052241    0.0700
     41 H41        -5.6512    4.2082   55.4607 H       1  ZINC001341052241    0.0700
     42 H42        -5.1844    4.7317   57.0967 H       1  ZINC001341052241    0.0700
     43 H43       -10.1134   -2.1984   58.8106 H       1  ZINC001341052241    0.0600
     44 H44        -9.1412   -2.8534   57.4714 H       1  ZINC001341052241    0.0800
     45 H45       -11.0838   -4.3182   57.9811 H       1  ZINC001341052241    0.0800
     46 H46       -11.2043   -3.6285   56.3439 H       1  ZINC001341052241    0.0800
     47 H47       -12.6078   -2.5819   58.8459 H       1  ZINC001341052241    0.0800
     48 H48       -13.6599   -4.6164   58.0185 H       1  ZINC001341052241    0.0500
     49 H49       -13.5903   -4.0211   56.3425 H       1  ZINC001341052241    0.0500
     50 H50       -15.5637   -4.1309   59.2378 H       1  ZINC001341052241    0.0400
     51 H51       -16.3992   -2.5829   58.9652 H       1  ZINC001341052241    0.0900
     52 H52       -14.7220   -2.5963   59.5615 H       1  ZINC001341052241    0.0400
     53 H53       -12.7388   -1.6518   55.9397 H       1  ZINC001341052241    0.0700
     54 H54       -13.6739   -0.9817   57.2989 H       1  ZINC001341052241    0.0800
     55 H55       -11.5734   -0.3175   58.4260 H       1  ZINC001341052241    0.0600
     56 H56       -11.6736    0.4089   56.8043 H       1  ZINC001341052241    0.0800
@<TRIPOS>BOND
     1     1     2    1
     2     1    25    1
     3     1    26    1
     4     1    27    1
     5     2     3    1
     6     2    28    1
     7     2    29    1
     8     3    15    1
     9     3     4    1
    10     4     5    1
    11     4    13    2
    12     5     6    1
    13     5    30    1
    14     5    31    1
    15     6     7    1
    16     7    12    1
    17     7     8    1
    18     7    32    1
    19     8     9    1
    20     8    33    1
    21     8    34    1
    22     9    10    1
    23     9    35    1
    24     9    36    1
    25    10    11    1
    26    10    37    1
    27    10    38    1
    28    11    12    1
    29    11    39    1
    30    11    40    1
    31    12    41    1
    32    12    42    1
    33    13    14    1
    34    14    15    2
    35    15    16    1
    36    16    24    1
    37    16    17    1
    38    17    18    1
    39    17    43    1
    40    17    44    1
    41    18    19    1
    42    18    45    1
    43    18    46    1
    44    19    20    1
    45    19    23    1
    46    19    47    1
    47    20    21    1
    48    20    48    1
    49    20    49    1
    50    21    22    1
    51    22    50    1
    52    22    51    1
    53    22    52    1
    54    23    24    1
    55    23    53    1
    56    23    54    1
    57    24    55    1
    58    24    56    1
@<TRIPOS>SUBSTRUCTURE
     1 ZINC001341052241        1 TEMP              0 ****  ****    0 ROOT


##########                                Name:    ZINC000951315041
##########                DOCK_Rotatable_Bonds:                   5
##########                         Heavy_Atoms:                  25
##########                    Molecular_Weight:             340.382
##########                DOCK_Rotatable_Bonds:                   5
##########                       Formal_Charge:          0.00999974
##########                     HBond_Acceptors:                   7
##########                        HBond_Donors:                   1
##########                         Heavy_Atoms:                  25
##########                          Grid_Score:          -26.301102
##########                     Grid_vdw_energy:          -22.770292
##########                      Grid_es_energy:           -3.530809
##########           Internal_energy_repulsive:           10.732957

@<TRIPOS>MOLECULE
ZINC000951315041
 45 47 1 0 0
SMALL
USER_CHARGES


@<TRIPOS>ATOM
      1 C1         -7.2943    1.1932   53.3828 C.3     1  ZINC000951315041    0.0500
      2 N2         -8.3375    0.8251   54.3431 N.am    1  ZINC000951315041   -0.4900
      3 C3         -8.3935    1.4518   55.5330 C.2     1  ZINC000951315041    0.1700
      4 C4         -9.3674    1.1208   56.4529 C.2     1  ZINC000951315041   -0.2400
      5 C5         -9.4245    1.8102   57.7551 C.2     1  ZINC000951315041    0.5800
      6 O6         -9.8938    2.9296   57.8305 O.2     1  ZINC000951315041   -0.5200
      7 N7         -8.9566    1.1999   58.8619 N.am    1  ZINC000951315041   -0.6000
      8 C8         -8.3867   -0.1523   58.7870 C.3     1  ZINC000951315041    0.1100
      9 C9         -9.1024   -1.0461   59.8047 C.3     1  ZINC000951315041   -0.1300
     10 C10        -9.0163   -0.4037   61.1911 C.3     1  ZINC000951315041   -0.1300
     11 C11        -9.7149    0.9578   61.1686 C.3     1  ZINC000951315041    0.1300
     12 H12       -10.7552    0.8281   60.8705 H       1  ZINC000951315041    0.1000
     13 N13        -9.6601    1.5576   62.5040 N.am    1  ZINC000951315041   -0.7200
     14 C14       -10.7677    1.5971   63.2710 C.2     1  ZINC000951315041    0.5700
     15 O15       -11.8124    1.1363   62.8540 O.2     1  ZINC000951315041   -0.5200
     16 C16       -10.7121    2.2007   64.6194 C.ar    1  ZINC000951315041   -0.1900
     17 C17       -11.8485    2.2235   65.4365 C.ar    1  ZINC000951315041   -0.0100
     18 C18       -11.7434    2.7999   66.6903 C.ar    1  ZINC000951315041   -0.1800
     19 C19       -10.5307    3.3297   67.0923 C.ar    1  ZINC000951315041    0.1300
     20 N20        -9.4758    3.2944   66.3003 N.ar    1  ZINC000951315041   -0.4900
     21 C21        -9.5242    2.7520   65.1015 C.ar    1  ZINC000951315041    0.1400
     22 C22        -9.0010    1.8765   60.1653 C.3     1  ZINC000951315041    0.1000
     23 C23       -10.3117    0.1142   56.1365 C.2     1  ZINC000951315041    0.0100
     24 C24       -10.2357   -0.5047   54.9282 C.2     1  ZINC000951315041   -0.2300
     25 C25        -9.2279   -0.1302   54.0197 C.2     1  ZINC000951315041    0.5100
     26 O26        -9.1559   -0.6822   52.9345 O.2     1  ZINC000951315041   -0.5400
     27 H27        -7.4032    0.5923   52.4799 H       1  ZINC000951315041    0.1100
     28 H28        -7.3895    2.2493   53.1300 H       1  ZINC000951315041    0.0800
     29 H29        -6.3142    1.0121   53.8238 H       1  ZINC000951315041    0.0800
     30 H30        -7.6709    2.2188   55.7695 H       1  ZINC000951315041    0.1700
     31 H31        -8.5296   -0.5539   57.7838 H       1  ZINC000951315041    0.1000
     32 H32        -7.3225   -0.1137   59.0191 H       1  ZINC000951315041    0.0700
     33 H33       -10.1484   -1.1569   59.5194 H       1  ZINC000951315041    0.0700
     34 H34        -8.6252   -2.0258   59.8274 H       1  ZINC000951315041    0.0900
     35 H35        -9.5035   -1.0497   61.9214 H       1  ZINC000951315041    0.0800
     36 H36        -7.9698   -0.2704   61.4654 H       1  ZINC000951315041    0.0700
     37 H37        -8.8268    1.9263   62.8364 H       1  ZINC000951315041    0.4000
     38 H38       -12.7834    1.8025   65.0969 H       1  ZINC000951315041    0.1500
     39 H39       -12.5995    2.8359   67.3478 H       1  ZINC000951315041    0.1500
     40 H40       -10.4459    3.7802   68.0702 H       1  ZINC000951315041    0.1600
     41 H41        -8.6392    2.7419   64.4824 H       1  ZINC000951315041    0.1600
     42 H42        -7.9879    2.0795   60.5124 H       1  ZINC000951315041    0.0700
     43 H43        -9.5516    2.8125   60.0712 H       1  ZINC000951315041    0.0900
     44 H44       -11.0805   -0.1580   56.8444 H       1  ZINC000951315041    0.1400
     45 H45       -10.9454   -1.2756   54.6662 H       1  ZINC000951315041    0.1600
@<TRIPOS>BOND
     1     1     2    1
     2     1    27    1
     3     1    28    1
     4     1    29    1
     5     2    25   am
     6     2     3    1
     7     3     4    2
     8     3    30    1
     9     4     5    1
    10     4    23    1
    11     5     6    2
    12     5     7   am
    13     7    22    1
    14     7     8    1
    15     8     9    1
    16     8    31    1
    17     8    32    1
    18     9    10    1
    19     9    33    1
    20     9    34    1
    21    10    11    1
    22    10    35    1
    23    10    36    1
    24    11    12    1
    25    11    13    1
    26    11    22    1
    27    13    14   am
    28    13    37    1
    29    14    15    2
    30    14    16    1
    31    16    21   ar
    32    16    17   ar
    33    17    18   ar
    34    17    38    1
    35    18    19   ar
    36    18    39    1
    37    19    20   ar
    38    19    40    1
    39    20    21   ar
    40    21    41    1
    41    22    42    1
    42    22    43    1
    43    23    24    2
    44    23    44    1
    45    24    25    1
    46    24    45    1
    47    25    26    2
@<TRIPOS>SUBSTRUCTURE
     1 ZINC000951315041        1 TEMP              0 ****  ****    0 ROOT


##########                                Name:    ZINC001191386213
##########                DOCK_Rotatable_Bonds:                   6
##########                         Heavy_Atoms:                  29
##########                    Molecular_Weight:             392.433
##########                DOCK_Rotatable_Bonds:                   6
##########                       Formal_Charge:               -0.02
##########                     HBond_Acceptors:                   7
##########                        HBond_Donors:                   2
##########                         Heavy_Atoms:                  29
##########                          Grid_Score:          -26.299652
##########                     Grid_vdw_energy:          -24.349728
##########                      Grid_es_energy:           -1.949924
##########           Internal_energy_repulsive:          168.843781

@<TRIPOS>MOLECULE
ZINC001191386213
 50 53 1 0 0
SMALL
USER_CHARGES


@<TRIPOS>ATOM
      1 C1        -12.3806    4.9747   49.5957 C.3     1  ZINC001191386213   -0.1700
      2 C2        -11.3692    4.3050   50.4901 C.2     1  ZINC001191386213    0.5100
      3 O3        -11.7119    3.8563   51.5635 O.2     1  ZINC001191386213   -0.5200
      4 N4        -10.0839    4.2046   50.0971 N.am    1  ZINC001191386213   -0.6800
      5 C5         -9.1448    3.5827   50.9276 C.ar    1  ZINC001191386213    0.1400
      6 C6         -7.8199    3.4792   50.5227 C.ar    1  ZINC001191386213   -0.1400
      7 C7         -6.8897    2.8660   51.3405 C.ar    1  ZINC001191386213   -0.1000
      8 C8         -7.2719    2.3530   52.5638 C.ar    1  ZINC001191386213   -0.1100
      9 C9         -8.5990    2.4521   52.9777 C.ar    1  ZINC001191386213    0.0100
     10 C10        -9.0114    1.9009   54.2930 C.2     1  ZINC001191386213    0.0700
     11 N11       -10.2256    1.9270   54.8010 N.2     1  ZINC001191386213   -0.2500
     12 N12       -10.2487    1.3661   55.9559 N.pl3   1  ZINC001191386213   -0.3800
     13 C13        -8.9979    0.9226   56.2823 C.2     1  ZINC001191386213   -0.0400
     14 C14        -8.6042    0.2267   57.5181 C.2     1  ZINC001191386213    0.6100
     15 O15        -7.4732    0.3460   57.9494 O.2     1  ZINC001191386213   -0.5100
     16 N16        -9.4971   -0.5427   58.1719 N.am    1  ZINC001191386213   -0.6200
     17 C17        -9.2389   -1.2903   59.4111 C.3     1  ZINC001191386213    0.0800
     18 C18       -10.5376   -2.0418   59.7720 C.3     1  ZINC001191386213   -0.1200
     19 C19       -11.2796   -2.1263   58.4119 C.3     1  ZINC001191386213   -0.0600
     20 H20       -10.9121   -2.9629   57.8178 H       1  ZINC001191386213    0.1000
     21 C21       -12.7696   -2.2246   58.6146 C.ar    1  ZINC001191386213   -0.1100
     22 C22       -13.4401   -1.2329   59.3046 C.ar    1  ZINC001191386213   -0.0900
     23 C23       -14.8072   -1.3229   59.4909 C.ar    1  ZINC001191386213   -0.1300
     24 C24       -15.5047   -2.4049   58.9875 C.ar    1  ZINC001191386213   -0.0900
     25 C25       -14.8360   -3.3983   58.2973 C.ar    1  ZINC001191386213   -0.1500
     26 C26       -13.4682   -3.3060   58.1045 C.ar    1  ZINC001191386213    0.1100
     27 F27       -12.8135   -4.2764   57.4301 F       1  ZINC001191386213   -0.1400
     28 C28       -10.8963   -0.7688   57.7662 C.3     1  ZINC001191386213    0.1200
     29 C29        -8.1770    1.2502   55.2201 C.2     1  ZINC001191386213   -0.1300
     30 C30        -9.5353    3.0748   52.1576 C.ar    1  ZINC001191386213   -0.1000
     31 H31       -13.3578    4.9609   50.0783 H       1  ZINC001191386213    0.1000
     32 H32       -12.0790    6.0065   49.4152 H       1  ZINC001191386213    0.0900
     33 H33       -12.4363    4.4412   48.6469 H       1  ZINC001191386213    0.0900
     34 H34        -9.8099    4.5634   49.2385 H       1  ZINC001191386213    0.4100
     35 H35        -7.5162    3.8783   49.5662 H       1  ZINC001191386213    0.1300
     36 H36        -5.8608    2.7878   51.0215 H       1  ZINC001191386213    0.1300
     37 H37        -6.5424    1.8742   53.2002 H       1  ZINC001191386213    0.1300
     38 H38       -11.0365    1.2717   56.5139 H       1  ZINC001191386213    0.4400
     39 H39        -8.4299   -2.0034   59.2522 H       1  ZINC001191386213    0.0700
     40 H40        -8.9752   -0.6001   60.2125 H       1  ZINC001191386213    0.0800
     41 H41       -10.3136   -3.0387   60.1516 H       1  ZINC001191386213    0.0900
     42 H42       -11.1228   -1.4747   60.4959 H       1  ZINC001191386213    0.0900
     43 H43       -12.8961   -0.3873   59.6991 H       1  ZINC001191386213    0.1300
     44 H44       -15.3306   -0.5473   60.0303 H       1  ZINC001191386213    0.1300
     45 H45       -16.5725   -2.4743   59.1338 H       1  ZINC001191386213    0.1300
     46 H46       -15.3810   -4.2440   57.9046 H       1  ZINC001191386213    0.1400
     47 H47       -11.5395    0.0260   58.1439 H       1  ZINC001191386213    0.0800
     48 H48       -10.9674   -0.8317   56.6803 H       1  ZINC001191386213    0.0900
     49 H49        -7.1192    1.0545   55.1248 H       1  ZINC001191386213    0.1700
     50 H50       -10.5649    3.1540   52.4741 H       1  ZINC001191386213    0.1500
@<TRIPOS>BOND
     1     1     2    1
     2     1    31    1
     3     1    32    1
     4     1    33    1
     5     2     3    2
     6     2     4   am
     7     4     5    1
     8     4    34    1
     9     5    30   ar
    10     5     6   ar
    11     6     7   ar
    12     6    35    1
    13     7     8   ar
    14     7    36    1
    15     8     9   ar
    16     8    37    1
    17     9    10    1
    18     9    30   ar
    19    10    29    1
    20    10    11    2
    21    11    12    1
    22    12    13    1
    23    12    38    1
    24    13    14    1
    25    13    29    2
    26    14    15    2
    27    14    16   am
    28    16    28    1
    29    16    17    1
    30    17    18    1
    31    17    39    1
    32    17    40    1
    33    18    19    1
    34    18    41    1
    35    18    42    1
    36    19    20    1
    37    19    21    1
    38    19    28    1
    39    21    26   ar
    40    21    22   ar
    41    22    23   ar
    42    22    43    1
    43    23    24   ar
    44    23    44    1
    45    24    25   ar
    46    24    45    1
    47    25    26   ar
    48    25    46    1
    49    26    27    1
    50    28    47    1
    51    28    48    1
    52    29    49    1
    53    30    50    1
@<TRIPOS>SUBSTRUCTURE
     1 ZINC001191386213        1 TEMP              0 ****  ****    0 ROOT


##########                                Name:    ZINC000047262406
##########                DOCK_Rotatable_Bonds:                   6
##########                         Heavy_Atoms:                  28
##########                    Molecular_Weight:             417.919
##########                DOCK_Rotatable_Bonds:                   6
##########                       Formal_Charge:          -0.0100002
##########                     HBond_Acceptors:                   9
##########                        HBond_Donors:                   1
##########                         Heavy_Atoms:                  28
##########                          Grid_Score:          -26.276478
##########                     Grid_vdw_energy:          -25.728027
##########                      Grid_es_energy:           -0.548450
##########           Internal_energy_repulsive:           11.546805

@<TRIPOS>MOLECULE
ZINC000047262406
 48 51 1 0 0
SMALL
USER_CHARGES


@<TRIPOS>ATOM
      1 C1        -14.8994   -3.8242   58.3182 C.3     1  ZINC000047262406   -0.1500
      2 C2        -14.0219   -2.8392   59.0933 C.3     1  ZINC000047262406    0.1800
      3 H3        -13.5482   -3.3544   59.9290 H       1  ZINC000047262406    0.0800
      4 C4        -14.8738   -1.7115   59.6162 C.2     1  ZINC000047262406    0.1700
      5 N5        -16.0684   -1.3947   59.2029 N.2     1  ZINC000047262406   -0.2500
      6 N6        -16.5006   -0.3817   59.8679 N.2     1  ZINC000047262406   -0.2700
      7 C7        -15.5861   -0.0131   60.7385 C.2     1  ZINC000047262406    0.2400
      8 C8        -15.6873    1.1024   61.6913 C.2     1  ZINC000047262406   -0.1500
      9 C9        -14.7237    1.4681   62.5810 C.2     1  ZINC000047262406   -0.0600
     10 C10       -15.0553    2.5485   63.3684 C.2     1  ZINC000047262406   -0.1400
     11 C11       -16.2653    3.0693   63.1398 C.2     1  ZINC000047262406   -0.1900
     12 S12       -17.0693    2.1781   61.8550 S.3     1  ZINC000047262406    0.1700
     13 O13       -14.5405   -0.8539   60.5980 O.3     1  ZINC000047262406   -0.2200
     14 N14       -12.9873   -2.2985   58.2016 N.3     1  ZINC000047262406   -0.5200
     15 C15       -11.7783   -1.9406   58.9543 C.3     1  ZINC000047262406    0.0500
     16 C16       -10.6754   -1.5198   57.9805 C.3     1  ZINC000047262406   -0.1000
     17 C17       -11.1585   -0.3234   57.1558 C.3     1  ZINC000047262406   -0.1100
     18 C18       -10.0997    0.0580   56.1536 C.2     1  ZINC000047262406    0.5100
     19 O19        -8.9316   -0.1657   56.3908 O.2     1  ZINC000047262406   -0.4600
     20 N20       -10.4509    0.6475   54.9936 N.am    1  ZINC000047262406   -0.6600
     21 C21        -9.4710    1.0004   54.0661 C.ar    1  ZINC000047262406    0.3600
     22 C22        -9.1036    2.3335   53.9269 C.ar    1  ZINC000047262406   -0.2000
     23 C23        -8.1296    2.6707   53.0032 C.ar    1  ZINC000047262406   -0.0400
     24 C24        -7.5545    1.6574   52.2474 C.ar    1  ZINC000047262406   -0.1200
     25 Cl25       -6.3279    2.0254   51.0752 Cl      1  ZINC000047262406   -0.0500
     26 C26        -7.9688    0.3526   52.4389 C.ar    1  ZINC000047262406    0.1500
     27 N27        -8.8961    0.0620   53.3308 N.ar    1  ZINC000047262406   -0.4600
     28 C28       -12.4453   -0.7072   56.4199 C.3     1  ZINC000047262406   -0.1100
     29 C29       -13.4968   -1.1517   57.4389 C.3     1  ZINC000047262406    0.0600
     30 H30       -14.2831   -4.6398   57.9399 H       1  ZINC000047262406    0.0800
     31 H31       -15.6670   -4.2254   58.9798 H       1  ZINC000047262406    0.0700
     32 H32       -15.3730   -3.3089   57.4825 H       1  ZINC000047262406    0.0800
     33 H33       -13.7777    0.9534   62.6626 H       1  ZINC000047262406    0.1600
     34 H34       -14.3860    2.9461   64.1171 H       1  ZINC000047262406    0.1600
     35 H35       -16.6851    3.9150   63.6641 H       1  ZINC000047262406    0.1800
     36 H36       -12.0019   -1.1141   59.6290 H       1  ZINC000047262406    0.0400
     37 H37       -11.4428   -2.8011   59.5331 H       1  ZINC000047262406    0.0900
     38 H38        -9.7832   -1.2392   58.5404 H       1  ZINC000047262406    0.0800
     39 H39       -10.4416   -2.3502   57.3144 H       1  ZINC000047262406    0.0900
     40 H40       -11.3542    0.5201   57.8178 H       1  ZINC000047262406    0.1000
     41 H41       -11.3852    0.8264   54.8040 H       1  ZINC000047262406    0.4200
     42 H42        -9.5721    3.0963   54.5311 H       1  ZINC000047262406    0.1500
     43 H43        -7.8241    3.6983   52.8729 H       1  ZINC000047262406    0.1500
     44 H44        -7.5251   -0.4391   51.8535 H       1  ZINC000047262406    0.1700
     45 H45       -12.8175    0.1537   55.8647 H       1  ZINC000047262406    0.0700
     46 H46       -12.2393   -1.5250   55.7292 H       1  ZINC000047262406    0.0800
     47 H47       -14.4095   -1.4392   56.9170 H       1  ZINC000047262406    0.0700
     48 H48       -13.7124   -0.3290   58.1207 H       1  ZINC000047262406    0.0400
@<TRIPOS>BOND
     1     1     2    1
     2     1    30    1
     3     1    31    1
     4     1    32    1
     5     2     3    1
     6     2     4    1
     7     2    14    1
     8     4    13    1
     9     4     5    2
    10     5     6    1
    11     6     7    2
    12     7     8    1
    13     7    13    1
    14     8    12    1
    15     8     9    2
    16     9    10    1
    17     9    33    1
    18    10    11    2
    19    10    34    1
    20    11    12    1
    21    11    35    1
    22    14    29    1
    23    14    15    1
    24    15    16    1
    25    15    36    1
    26    15    37    1
    27    16    17    1
    28    16    38    1
    29    16    39    1
    30    17    18    1
    31    17    28    1
    32    17    40    1
    33    18    19    2
    34    18    20   am
    35    20    21    1
    36    20    41    1
    37    21    27   ar
    38    21    22   ar
    39    22    23   ar
    40    22    42    1
    41    23    24   ar
    42    23    43    1
    43    24    25    1
    44    24    26   ar
    45    26    27   ar
    46    26    44    1
    47    28    29    1
    48    28    45    1
    49    28    46    1
    50    29    47    1
    51    29    48    1
@<TRIPOS>SUBSTRUCTURE
     1 ZINC000047262406        1 TEMP              0 ****  ****    0 ROOT


##########                                Name:    ZINC000680410869
##########                DOCK_Rotatable_Bonds:                   6
##########                         Heavy_Atoms:                  24
##########                    Molecular_Weight:             335.354
##########                DOCK_Rotatable_Bonds:                   6
##########                       Formal_Charge:        -1.04308e-07
##########                     HBond_Acceptors:                   7
##########                        HBond_Donors:                   0
##########                         Heavy_Atoms:                  24
##########                          Grid_Score:          -26.271334
##########                     Grid_vdw_energy:          -23.364330
##########                      Grid_es_energy:           -2.907003
##########           Internal_energy_repulsive:           10.182337

@<TRIPOS>MOLECULE
ZINC000680410869
 43 45 1 0 0
SMALL
USER_CHARGES


@<TRIPOS>ATOM
      1 O1        -14.8108   -0.1251   62.1315 O.2     1  ZINC000680410869   -0.5200
      2 C2        -14.1424   -0.0373   61.1198 C.2     1  ZINC000680410869    0.6100
      3 C3        -13.0460    0.9496   61.0423 C.2     1  ZINC000680410869    0.0100
      4 N4        -11.8431    0.8286   61.5676 N.2     1  ZINC000680410869   -0.2500
      5 N5        -11.1415    1.8729   61.3077 N.pl3   1  ZINC000680410869   -0.3500
      6 C6         -9.7559    2.0792   61.7363 C.3     1  ZINC000680410869    0.5000
      7 F7         -8.9981    0.9448   61.4264 F       1  ZINC000680410869   -0.1600
      8 F8         -9.2236    3.1907   61.0743 F       1  ZINC000680410869   -0.1700
      9 C9        -11.8647    2.7527   60.5823 C.2     1  ZINC000680410869    0.0100
     10 C10       -13.0854    2.2021   60.3850 C.2     1  ZINC000680410869   -0.1700
     11 N11       -14.3982   -0.8441   60.0710 N.am    1  ZINC000680410869   -0.6000
     12 C12       -15.4849   -1.8348   60.1247 C.3     1  ZINC000680410869    0.0800
     13 C13       -14.9219   -3.1939   59.6941 C.3     1  ZINC000680410869    0.0500
     14 O14       -14.2550   -3.0506   58.4377 O.3     1  ZINC000680410869   -0.3700
     15 C15       -13.1280   -2.1717   58.4702 C.3     1  ZINC000680410869    0.0800
     16 H16       -12.4138   -2.5228   59.2151 H       1  ZINC000680410869    0.0600
     17 C17       -12.4600   -2.1462   57.0940 C.3     1  ZINC000680410869   -0.1000
     18 C18       -11.1301   -2.9000   57.1585 C.3     1  ZINC000680410869   -0.0800
     19 C19       -10.0552   -1.9790   57.6757 C.ar    1  ZINC000680410869   -0.0800
     20 C20        -9.5564   -2.1482   58.9538 C.ar    1  ZINC000680410869   -0.1200
     21 C21        -8.5704   -1.3034   59.4283 C.ar    1  ZINC000680410869   -0.1200
     22 C22        -8.0830   -0.2898   58.6246 C.ar    1  ZINC000680410869   -0.1300
     23 C23        -8.5813   -0.1212   57.3463 C.ar    1  ZINC000680410869   -0.1200
     24 C24        -9.5642   -0.9686   56.8702 C.ar    1  ZINC000680410869   -0.1200
     25 C25       -13.6028   -0.7562   58.8361 C.3     1  ZINC000680410869    0.0600
     26 H26        -9.7301    2.2505   62.8124 H       1  ZINC000680410869    0.1700
     27 H27       -11.5301    3.7147   60.2229 H       1  ZINC000680410869    0.1900
     28 H28       -13.9164    2.6308   59.8446 H       1  ZINC000680410869    0.1700
     29 H29       -15.8699   -1.9026   61.1422 H       1  ZINC000680410869    0.1000
     30 H30       -16.2859   -1.5380   59.4476 H       1  ZINC000680410869    0.0800
     31 H31       -14.2143   -3.5488   60.4434 H       1  ZINC000680410869    0.0600
     32 H32       -15.7371   -3.9106   59.5939 H       1  ZINC000680410869    0.1100
     33 H33       -13.1134   -2.6239   56.3640 H       1  ZINC000680410869    0.0800
     34 H34       -12.2780   -1.1131   56.7975 H       1  ZINC000680410869    0.0800
     35 H35       -11.2291   -3.7548   57.8275 H       1  ZINC000680410869    0.0700
     36 H36       -10.8612   -3.2483   56.1613 H       1  ZINC000680410869    0.0800
     37 H37        -9.9371   -2.9402   59.5817 H       1  ZINC000680410869    0.1200
     38 H38        -8.1811   -1.4352   60.4271 H       1  ZINC000680410869    0.1200
     39 H39        -7.3132    0.3707   58.9956 H       1  ZINC000680410869    0.1200
     40 H40        -8.2007    0.6710   56.7184 H       1  ZINC000680410869    0.1200
     41 H41        -9.9535   -0.8369   55.8715 H       1  ZINC000680410869    0.1200
     42 H42       -14.2131   -0.3534   58.0278 H       1  ZINC000680410869    0.0800
     43 H43       -12.7400   -0.1110   59.0020 H       1  ZINC000680410869    0.1300
@<TRIPOS>BOND
     1     1     2    2
     2     2     3    1
     3     2    11   am
     4     3    10    1
     5     3     4    2
     6     4     5    1
     7     5     6    1
     8     5     9    1
     9     6     7    1
    10     6     8    1
    11     6    26    1
    12     9    10    2
    13     9    27    1
    14    10    28    1
    15    11    25    1
    16    11    12    1
    17    12    13    1
    18    12    29    1
    19    12    30    1
    20    13    14    1
    21    13    31    1
    22    13    32    1
    23    14    15    1
    24    15    16    1
    25    15    17    1
    26    15    25    1
    27    17    18    1
    28    17    33    1
    29    17    34    1
    30    18    19    1
    31    18    35    1
    32    18    36    1
    33    19    24   ar
    34    19    20   ar
    35    20    21   ar
    36    20    37    1
    37    21    22   ar
    38    21    38    1
    39    22    23   ar
    40    22    39    1
    41    23    24   ar
    42    23    40    1
    43    24    41    1
    44    25    42    1
    45    25    43    1
@<TRIPOS>SUBSTRUCTURE
     1 ZINC000680410869        1 TEMP              0 ****  ****    0 ROOT


##########                                Name:    ZINC000426607143
##########                DOCK_Rotatable_Bonds:                   3
##########                         Heavy_Atoms:                  25
##########                    Molecular_Weight:             419.302
##########                DOCK_Rotatable_Bonds:                   3
##########                       Formal_Charge:         1.49012e-07
##########                     HBond_Acceptors:                   7
##########                        HBond_Donors:                   0
##########                         Heavy_Atoms:                  25
##########                          Grid_Score:          -26.237251
##########                     Grid_vdw_energy:          -25.006536
##########                      Grid_es_energy:           -1.230714
##########           Internal_energy_repulsive:           11.414691

@<TRIPOS>MOLECULE
ZINC000426607143
 40 43 1 0 0
SMALL
USER_CHARGES


@<TRIPOS>ATOM
      1 C1         -9.4541   -1.4309   53.7624 C.3     1  ZINC000426607143   -0.0900
      2 C2         -8.5200   -0.2914   53.4457 C.2     1  ZINC000426607143    0.1600
      3 N3         -8.1066   -0.0676   52.2361 N.2     1  ZINC000426607143   -0.4600
      4 S4         -7.0843    1.2839   52.2884 S.3     1  ZINC000426607143    0.2900
      5 C5         -7.2239    1.5456   53.9829 C.2     1  ZINC000426607143   -0.1300
      6 C6         -6.5610    2.6271   54.7967 C.3     1  ZINC000426607143   -0.0800
      7 C7         -8.0654    0.5722   54.4334 C.2     1  ZINC000426607143   -0.1200
      8 C8         -8.4543    0.4409   55.8586 C.2     1  ZINC000426607143    0.2500
      9 N9         -7.6952    0.6824   56.8964 N.2     1  ZINC000426607143   -0.3700
     10 O10        -8.3126    0.4793   57.9204 O.3     1  ZINC000426607143    0.0900
     11 C11        -9.5554    0.0788   57.6343 C.2     1  ZINC000426607143    0.2000
     12 C12       -10.6332   -0.2731   58.6269 C.3     1  ZINC000426607143   -0.0300
     13 H13       -11.5896   -0.4021   58.1204 H       1  ZINC000426607143    0.1600
     14 C14       -10.2553   -1.5552   59.4044 C.3     1  ZINC000426607143   -0.1200
     15 C15       -10.8051   -1.2426   60.8138 C.3     1  ZINC000426607143    0.1000
     16 N16       -10.8260    0.2219   60.9099 N.am    1  ZINC000426607143   -0.5800
     17 C17       -10.9262    0.9330   62.1112 C.ar    1  ZINC000426607143    0.1700
     18 C18        -9.7817    1.2478   62.8308 C.ar    1  ZINC000426607143   -0.1000
     19 C19        -9.8839    1.9499   64.0163 C.ar    1  ZINC000426607143   -0.1000
     20 C20       -11.1244    2.3387   64.4869 C.ar    1  ZINC000426607143   -0.1000
     21 C21       -12.2670    2.0269   63.7729 C.ar    1  ZINC000426607143   -0.0900
     22 C22       -12.1714    1.3304   62.5835 C.ar    1  ZINC000426607143   -0.0800
     23 Br23      -13.7341    0.9043   61.6076 Br      1  ZINC000426607143   -0.0400
     24 C24       -10.7388    0.7940   59.6941 C.2     1  ZINC000426607143    0.5300
     25 O25       -10.7409    1.9891   59.4870 O.2     1  ZINC000426607143   -0.4900
     26 N26        -9.6621    0.0546   56.3291 N.2     1  ZINC000426607143   -0.4600
     27 H27       -10.4857   -1.0908   53.6723 H       1  ZINC000426607143    0.0900
     28 H28        -9.2790   -2.2491   53.0638 H       1  ZINC000426607143    0.0800
     29 H29        -9.2731   -1.7769   54.7801 H       1  ZINC000426607143    0.1100
     30 H30        -5.9523    3.2521   54.1432 H       1  ZINC000426607143    0.0800
     31 H31        -7.3240    3.2392   55.2775 H       1  ZINC000426607143    0.0900
     32 H32        -5.9272    2.1721   55.5579 H       1  ZINC000426607143    0.0900
     33 H33       -10.7480   -2.4292   58.9785 H       1  ZINC000426607143    0.1100
     34 H34        -9.1742   -1.6920   59.4290 H       1  ZINC000426607143    0.1000
     35 H35       -11.8134   -1.6421   60.9224 H       1  ZINC000426607143    0.0900
     36 H36       -10.1484   -1.6613   61.5763 H       1  ZINC000426607143    0.0900
     37 H37        -8.8123    0.9440   62.4645 H       1  ZINC000426607143    0.1400
     38 H38        -8.9936    2.1949   64.5764 H       1  ZINC000426607143    0.1400
     39 H39       -11.2012    2.8867   65.4143 H       1  ZINC000426607143    0.1400
     40 H40       -13.2346    2.3321   64.1432 H       1  ZINC000426607143    0.1400
@<TRIPOS>BOND
     1     1     2    1
     2     1    27    1
     3     1    28    1
     4     1    29    1
     5     2     7    1
     6     2     3    2
     7     3     4    1
     8     4     5    1
     9     5     6    1
    10     5     7    2
    11     6    30    1
    12     6    31    1
    13     6    32    1
    14     7     8    1
    15     8    26    1
    16     8     9    2
    17     9    10    1
    18    10    11    1
    19    11    12    1
    20    11    26    2
    21    12    13    1
    22    12    24    1
    23    12    14    1
    24    14    15    1
    25    14    33    1
    26    14    34    1
    27    15    16    1
    28    15    35    1
    29    15    36    1
    30    16    17    1
    31    16    24   am
    32    17    22   ar
    33    17    18   ar
    34    18    19   ar
    35    18    37    1
    36    19    20   ar
    37    19    38    1
    38    20    21   ar
    39    20    39    1
    40    21    22   ar
    41    21    40    1
    42    22    23    1
    43    24    25    2
@<TRIPOS>SUBSTRUCTURE
     1 ZINC000426607143        1 TEMP              0 ****  ****    0 ROOT


##########                                Name:    ZINC000482846390
##########                DOCK_Rotatable_Bonds:                   9
##########                         Heavy_Atoms:                  30
##########                    Molecular_Weight:             420.469
##########                DOCK_Rotatable_Bonds:                   9
##########                       Formal_Charge:          -0.0100011
##########                     HBond_Acceptors:                  11
##########                        HBond_Donors:                   2
##########                         Heavy_Atoms:                  30
##########                          Grid_Score:          -26.190474
##########                     Grid_vdw_energy:          -25.715717
##########                      Grid_es_energy:           -0.474756
##########           Internal_energy_repulsive:           34.260471

@<TRIPOS>MOLECULE
ZINC000482846390
 58 60 1 0 0
SMALL
USER_CHARGES


@<TRIPOS>ATOM
      1 C1         -5.2489    3.1905   52.0012 C.3     1  ZINC000482846390   -0.1000
      2 C2         -6.4576    2.3426   52.3032 C.2     1  ZINC000482846390    0.0900
      3 C3         -6.7702    1.7968   53.5013 C.2     1  ZINC000482846390   -0.2700
      4 C4         -7.9670    1.0885   53.3526 C.2     1  ZINC000482846390    0.0700
      5 C5         -8.6820    0.3242   54.4368 C.3     1  ZINC000482846390   -0.0500
      6 C6        -10.1921    0.5198   54.2877 C.3     1  ZINC000482846390    0.1500
      7 H7        -10.4539    0.5346   53.2297 H       1  ZINC000482846390    0.1000
      8 C8        -10.6007    1.8457   54.9327 C.3     1  ZINC000482846390   -0.1700
      9 N9        -10.8950   -0.5822   54.9493 N.am    1  ZINC000482846390   -0.6800
     10 C10       -10.5986   -0.9015   56.2247 C.2     1  ZINC000482846390    0.5100
     11 O11        -9.7506   -0.2751   56.8256 O.2     1  ZINC000482846390   -0.5200
     12 C12       -11.3144   -2.0268   56.8990 C.2     1  ZINC000482846390    0.5100
     13 O13       -11.0764   -3.1739   56.5822 O.2     1  ZINC000482846390   -0.5100
     14 N14       -12.2242   -1.7679   57.8590 N.am    1  ZINC000482846390   -0.5900
     15 C15       -12.5270   -0.3835   58.2486 C.3     1  ZINC000482846390    0.0500
     16 C16       -14.0367   -0.1535   58.1070 C.3     1  ZINC000482846390    0.1000
     17 N17       -14.7443   -1.2503   58.7825 N.am    1  ZINC000482846390   -0.6000
     18 C18       -15.6548   -0.9912   59.7418 C.2     1  ZINC000482846390    0.5200
     19 O19       -16.2327   -1.9052   60.2925 O.2     1  ZINC000482846390   -0.5000
     20 C20       -15.9528    0.4216   60.1274 C.2     1  ZINC000482846390    0.5200
     21 O21       -16.8317    1.0337   59.5568 O.2     1  ZINC000482846390   -0.5000
     22 N22       -15.2455    1.0159   61.1087 N.am    1  ZINC000482846390   -0.6000
     23 C23       -14.1711    0.2959   61.8107 C.3     1  ZINC000482846390    0.0700
     24 C24       -12.9152    1.1747   61.8032 C.3     1  ZINC000482846390    0.0500
     25 O25       -13.2450    2.4714   62.3071 O.3     1  ZINC000482846390   -0.3700
     26 C26       -14.2027    3.1801   61.5169 C.3     1  ZINC000482846390    0.0500
     27 C27       -15.5207    2.4058   61.5058 C.3     1  ZINC000482846390    0.0700
     28 C28       -14.4415   -2.6347   58.3929 C.3     1  ZINC000482846390    0.0900
     29 C29       -12.9359   -2.8644   58.5306 C.3     1  ZINC000482846390    0.0900
     30 N30        -8.3590    1.2048   52.1097 N.2     1  ZINC000482846390   -0.2800
     31 N31        -7.4254    1.9965   51.4286 N.pl3   1  ZINC000482846390   -0.4700
     32 H32        -5.4869    4.2391   52.1795 H       1  ZINC000482846390    0.0800
     33 H33        -4.4238    2.8902   52.6472 H       1  ZINC000482846390    0.0900
     34 H34        -4.9616    3.0553   50.9584 H       1  ZINC000482846390    0.0700
     35 H35        -6.1966    1.8913   54.4115 H       1  ZINC000482846390    0.1500
     36 H36        -8.4429   -0.7359   54.3522 H       1  ZINC000482846390    0.0900
     37 H37        -8.3624    0.6920   55.4118 H       1  ZINC000482846390    0.1100
     38 H38       -10.0779    2.6656   54.4404 H       1  ZINC000482846390    0.0700
     39 H39       -11.6766    1.9850   54.8265 H       1  ZINC000482846390    0.0700
     40 H40       -10.3391    1.8309   55.9907 H       1  ZINC000482846390    0.0600
     41 H41       -11.5737   -1.0821   54.4695 H       1  ZINC000482846390    0.4200
     42 H42       -12.2279   -0.2212   59.2841 H       1  ZINC000482846390    0.0800
     43 H43       -11.9893    0.3058   57.5975 H       1  ZINC000482846390    0.1600
     44 H44       -14.3072    0.7959   58.5693 H       1  ZINC000482846390    0.1100
     45 H45       -14.3071   -0.1392   57.0511 H       1  ZINC000482846390    0.0800
     46 H46       -14.4736    0.0965   62.8387 H       1  ZINC000482846390    0.0900
     47 H47       -13.9643   -0.6443   61.2994 H       1  ZINC000482846390    0.0900
     48 H48       -12.1506    0.7225   62.4348 H       1  ZINC000482846390    0.1100
     49 H49       -12.5399    1.2649   60.7838 H       1  ZINC000482846390    0.0600
     50 H50       -14.3642    4.1705   61.9424 H       1  ZINC000482846390    0.1100
     51 H51       -13.8321    3.2776   60.4965 H       1  ZINC000482846390    0.0600
     52 H52       -16.2091    2.8629   60.7948 H       1  ZINC000482846390    0.1100
     53 H53       -15.9613    2.4166   62.5028 H       1  ZINC000482846390    0.0800
     54 H54       -14.9793   -3.3238   59.0440 H       1  ZINC000482846390    0.0900
     55 H55       -14.7408   -2.7969   57.3574 H       1  ZINC000482846390    0.0900
     56 H56       -12.6669   -3.8140   58.0679 H       1  ZINC000482846390    0.1100
     57 H57       -12.6630   -2.8785   59.5858 H       1  ZINC000482846390    0.0800
     58 H58        -7.4643    2.2466   50.4922 H       1  ZINC000482846390    0.4400
@<TRIPOS>BOND
     1     1     2    1
     2     1    32    1
     3     1    33    1
     4     1    34    1
     5     2    31    1
     6     2     3    2
     7     3     4    1
     8     3    35    1
     9     4     5    1
    10     4    30    2
    11     5     6    1
    12     5    36    1
    13     5    37    1
    14     6     7    1
    15     6     8    1
    16     6     9    1
    17     8    38    1
    18     8    39    1
    19     8    40    1
    20     9    10   am
    21     9    41    1
    22    10    11    2
    23    10    12    1
    24    12    13    2
    25    12    14   am
    26    14    29    1
    27    14    15    1
    28    15    16    1
    29    15    42    1
    30    15    43    1
    31    16    17    1
    32    16    44    1
    33    16    45    1
    34    17    18   am
    35    17    28    1
    36    18    19    2
    37    18    20    1
    38    20    21    2
    39    20    22   am
    40    22    27    1
    41    22    23    1
    42    23    24    1
    43    23    46    1
    44    23    47    1
    45    24    25    1
    46    24    48    1
    47    24    49    1
    48    25    26    1
    49    26    27    1
    50    26    50    1
    51    26    51    1
    52    27    52    1
    53    27    53    1
    54    28    29    1
    55    28    54    1
    56    28    55    1
    57    29    56    1
    58    29    57    1
    59    30    31    1
    60    31    58    1
@<TRIPOS>SUBSTRUCTURE
     1 ZINC000482846390        1 TEMP              0 ****  ****    0 ROOT


##########                                Name:    ZINC001345966764
##########                DOCK_Rotatable_Bonds:                  10
##########                         Heavy_Atoms:                  22
##########                    Molecular_Weight:             333.258
##########                DOCK_Rotatable_Bonds:                  10
##########                       Formal_Charge:           0.0099997
##########                     HBond_Acceptors:                  11
##########                        HBond_Donors:                   4
##########                         Heavy_Atoms:                  22
##########                          Grid_Score:          -26.151663
##########                     Grid_vdw_energy:          -25.629517
##########                      Grid_es_energy:           -0.522147
##########           Internal_energy_repulsive:            6.726323

@<TRIPOS>MOLECULE
ZINC001345966764
 38 38 1 0 0
SMALL
USER_CHARGES


@<TRIPOS>ATOM
      1 N1         -4.9803    1.0378   51.8321 N.3     1  ZINC001345966764   -0.8400
      2 C2         -5.0154    2.5064   51.8175 C.3     1  ZINC001345966764    0.0200
      3 C3         -6.4567    2.9800   51.6194 C.3     1  ZINC001345966764    0.2800
      4 F4         -6.4547    4.3068   51.1757 F       1  ZINC001345966764   -0.1900
      5 F5         -7.0868    2.1710   50.6676 F       1  ZINC001345966764   -0.1800
      6 C6         -7.2110    2.8874   52.9472 C.3     1  ZINC001345966764    0.0800
      7 N7         -8.1241    1.7423   52.9112 N.am    1  ZINC001345966764   -0.7000
      8 C8         -8.1029    0.8320   53.9050 C.2     1  ZINC001345966764    0.5100
      9 O9         -7.3265    0.9600   54.8287 O.2     1  ZINC001345966764   -0.5100
     10 C10        -9.0357   -0.3352   53.8692 C.2     1  ZINC001345966764    0.5100
     11 O11        -9.4576   -0.7423   52.8068 O.2     1  ZINC001345966764   -0.5100
     12 N12        -9.4082   -0.9355   55.0169 N.am    1  ZINC001345966764   -0.7000
     13 C13       -10.3211   -2.0808   54.9817 C.3     1  ZINC001345966764    0.1200
     14 C14       -10.7749   -2.4152   56.4040 C.3     1  ZINC001345966764    0.0600
     15 H15        -9.9547   -2.8580   56.9691 H       1  ZINC001345966764    0.0900
     16 C16       -11.2943   -1.1461   57.1152 C.3     1  ZINC001345966764   -0.1400
     17 C17       -12.4847   -1.6505   57.9613 C.3     1  ZINC001345966764   -0.1500
     18 C18       -12.5436   -3.1647   57.6613 C.3     1  ZINC001345966764    0.0300
     19 H19       -11.9960   -3.7234   58.4202 H       1  ZINC001345966764    0.1200
     20 C20       -13.9968   -3.6388   57.5975 C.3     1  ZINC001345966764    0.4600
     21 F21       -14.0304   -4.9948   57.2547 F       1  ZINC001345966764   -0.1700
     22 F22       -14.6016   -3.4583   58.8460 F       1  ZINC001345966764   -0.1700
     23 F23       -14.6876   -2.8970   56.6332 F       1  ZINC001345966764   -0.1700
     24 O24       -11.9060   -3.3128   56.3729 O.3     1  ZINC001345966764   -0.3500
     25 H25        -4.0386    0.6999   51.9626 H       1  ZINC001345966764    0.3500
     26 H26        -5.5983    0.6683   52.5389 H       1  ZINC001345966764    0.3600
     27 H27        -4.6344    2.8883   52.7647 H       1  ZINC001345966764    0.1100
     28 H28        -4.3958    2.8766   51.0008 H       1  ZINC001345966764    0.0700
     29 H29        -6.4984    2.7583   53.7617 H       1  ZINC001345966764    0.1100
     30 H30        -7.7818    3.8024   53.1055 H       1  ZINC001345966764    0.1100
     31 H31        -8.7439    1.6392   52.1723 H       1  ZINC001345966764    0.4200
     32 H32        -9.0719   -0.6094   55.8662 H       1  ZINC001345966764    0.4200
     33 H33       -11.1900   -1.8342   54.3716 H       1  ZINC001345966764    0.1000
     34 H34        -9.8080   -2.9413   54.5523 H       1  ZINC001345966764    0.0900
     35 H35       -10.5210   -0.7244   57.7571 H       1  ZINC001345966764    0.0900
     36 H36       -11.6297   -0.4094   56.3851 H       1  ZINC001345966764    0.0900
     37 H37       -12.2998   -1.4780   59.0216 H       1  ZINC001345966764    0.1000
     38 H38       -13.4085   -1.1631   57.6496 H       1  ZINC001345966764    0.0900
@<TRIPOS>BOND
     1     1     2    1
     2     1    25    1
     3     1    26    1
     4     2     3    1
     5     2    27    1
     6     2    28    1
     7     3     4    1
     8     3     5    1
     9     3     6    1
    10     6     7    1
    11     6    29    1
    12     6    30    1
    13     7     8   am
    14     7    31    1
    15     8     9    2
    16     8    10    1
    17    10    11    2
    18    10    12   am
    19    12    13    1
    20    12    32    1
    21    13    14    1
    22    13    33    1
    23    13    34    1
    24    14    15    1
    25    14    24    1
    26    14    16    1
    27    16    17    1
    28    16    35    1
    29    16    36    1
    30    17    18    1
    31    17    37    1
    32    17    38    1
    33    18    19    1
    34    18    20    1
    35    18    24    1
    36    20    21    1
    37    20    22    1
    38    20    23    1
@<TRIPOS>SUBSTRUCTURE
     1 ZINC001345966764        1 TEMP              0 ****  ****    0 ROOT


##########                                Name:    ZINC000302023461
##########                DOCK_Rotatable_Bonds:                   3
##########                         Heavy_Atoms:                  25
##########                    Molecular_Weight:             356.362
##########                DOCK_Rotatable_Bonds:                   3
##########                       Formal_Charge:        -2.08616e-07
##########                     HBond_Acceptors:                   9
##########                        HBond_Donors:                   1
##########                         Heavy_Atoms:                  25
##########                          Grid_Score:          -26.106283
##########                     Grid_vdw_energy:          -25.315926
##########                      Grid_es_energy:           -0.790358
##########           Internal_energy_repulsive:           20.698015

@<TRIPOS>MOLECULE
ZINC000302023461
 37 40 1 0 0
SMALL
USER_CHARGES


@<TRIPOS>ATOM
      1 O1        -13.4951   -0.5529   60.7311 O.2     1  ZINC000302023461   -0.1600
      2 N2        -12.3664   -0.8767   60.4073 N.pl3   1  ZINC000302023461    0.0200
      3 O3        -11.4155   -0.5304   61.0851 O.2     1  ZINC000302023461   -0.1300
      4 C4        -12.1510   -1.6961   59.1934 C.ar    1  ZINC000302023461    0.0000
      5 C5        -13.2283   -2.0890   58.4245 C.ar    1  ZINC000302023461   -0.0600
      6 C6        -13.0279   -2.8546   57.2901 C.ar    1  ZINC000302023461   -0.0900
      7 C7        -11.7487   -3.2290   56.9216 C.ar    1  ZINC000302023461   -0.0800
      8 C8        -10.6664   -2.8396   57.6859 C.ar    1  ZINC000302023461   -0.0500
      9 C9        -10.8634   -2.0660   58.8232 C.ar    1  ZINC000302023461   -0.1100
     10 S10        -9.4855   -1.5664   59.8011 S.3     1  ZINC000302023461    0.1900
     11 C11        -8.5913   -0.5067   58.7139 C.2     1  ZINC000302023461    0.2100
     12 N12        -7.5273    0.1926   59.0353 N.2     1  ZINC000302023461   -0.3200
     13 N13        -7.1342    0.8930   57.8834 N.pl3   1  ZINC000302023461   -0.4700
     14 C14        -8.0154    0.5582   56.9139 C.2     1  ZINC000302023461    0.3500
     15 C15        -8.0037    1.0508   55.5197 C.ar    1  ZINC000302023461   -0.0400
     16 C16        -8.9925    0.6412   54.6247 C.ar    1  ZINC000302023461   -0.0900
     17 C17        -8.9782    1.1007   53.3246 C.ar    1  ZINC000302023461   -0.1100
     18 C18        -7.9825    1.9707   52.9009 C.ar    1  ZINC000302023461    0.0800
     19 O19        -7.9831    2.4046   51.6111 O.3     1  ZINC000302023461   -0.3000
     20 C20        -7.1920    3.5618   51.3204 C.3     1  ZINC000302023461    0.0200
     21 C21        -5.8182    3.3835   51.9807 C.3     1  ZINC000302023461    0.0200
     22 O22        -6.0144    3.2417   53.3918 O.3     1  ZINC000302023461   -0.3000
     23 C23        -6.9950    2.3855   53.7900 C.ar    1  ZINC000302023461    0.0500
     24 C24        -7.0069    1.9311   55.0969 C.ar    1  ZINC000302023461   -0.0500
     25 N25        -8.8830   -0.2901   57.4296 N.2     1  ZINC000302023461   -0.5000
     26 H26       -14.2287   -1.7984   58.7094 H       1  ZINC000302023461    0.1600
     27 H27       -13.8725   -3.1612   56.6909 H       1  ZINC000302023461    0.1500
     28 H28       -11.5959   -3.8268   56.0352 H       1  ZINC000302023461    0.1500
     29 H29        -9.6676   -3.1328   57.3979 H       1  ZINC000302023461    0.1600
     30 H30        -6.3800    1.4973   57.7998 H       1  ZINC000302023461    0.4400
     31 H31        -9.7687   -0.0358   54.9499 H       1  ZINC000302023461    0.1300
     32 H32        -9.7445    0.7824   52.6332 H       1  ZINC000302023461    0.1500
     33 H33        -7.0711    3.6629   50.2419 H       1  ZINC000302023461    0.1300
     34 H34        -7.6797    4.4505   51.7210 H       1  ZINC000302023461    0.0800
     35 H35        -5.3334    2.4907   51.5855 H       1  ZINC000302023461    0.0800
     36 H36        -5.1984    4.2577   51.7817 H       1  ZINC000302023461    0.1300
     37 H37        -6.2427    2.2543   55.7883 H       1  ZINC000302023461    0.1600
@<TRIPOS>BOND
     1     1     2    2
     2     2     3    2
     3     2     4    1
     4     4     9   ar
     5     4     5   ar
     6     5     6   ar
     7     5    26    1
     8     6     7   ar
     9     6    27    1
    10     7     8   ar
    11     7    28    1
    12     8     9   ar
    13     8    29    1
    14     9    10    1
    15    10    11    1
    16    11    25    1
    17    11    12    2
    18    12    13    1
    19    13    14    1
    20    13    30    1
    21    14    15    1
    22    14    25    2
    23    15    24   ar
    24    15    16   ar
    25    16    17   ar
    26    16    31    1
    27    17    18   ar
    28    17    32    1
    29    18    23   ar
    30    18    19    1
    31    19    20    1
    32    20    21    1
    33    20    33    1
    34    20    34    1
    35    21    22    1
    36    21    35    1
    37    21    36    1
    38    22    23    1
    39    23    24   ar
    40    24    37    1
@<TRIPOS>SUBSTRUCTURE
     1 ZINC000302023461        1 TEMP              0 ****  ****    0 ROOT


##########                                Name:    ZINC000331626032
##########                DOCK_Rotatable_Bonds:                   5
##########                         Heavy_Atoms:                  25
##########                    Molecular_Weight:              339.44
##########                DOCK_Rotatable_Bonds:                   5
##########                       Formal_Charge:        -2.16067e-07
##########                     HBond_Acceptors:                   6
##########                        HBond_Donors:                   2
##########                         Heavy_Atoms:                  25
##########                          Grid_Score:          -26.096964
##########                     Grid_vdw_energy:          -26.577803
##########                      Grid_es_energy:            0.480838
##########           Internal_energy_repulsive:           30.738163

@<TRIPOS>MOLECULE
ZINC000331626032
 50 52 1 0 0
SMALL
USER_CHARGES


@<TRIPOS>ATOM
      1 C1         -7.4919    1.2752   57.7457 C.3     1  ZINC000331626032   -0.2000
      2 C2         -8.6395    0.3909   58.2379 C.3     1  ZINC000331626032    0.0700
      3 H3         -8.2723   -0.6218   58.4039 H       1  ZINC000331626032    0.1100
      4 C4         -9.1832    0.9461   59.5291 C.2     1  ZINC000331626032    0.5200
      5 O5         -9.4190    2.1317   59.6277 O.2     1  ZINC000331626032   -0.5000
      6 N6         -9.4073    0.1251   60.5741 N.am    1  ZINC000331626032   -0.5800
      7 C7         -9.1225   -1.3069   60.4550 C.3     1  ZINC000331626032    0.0800
      8 C8         -9.9121    0.6407   61.7731 C.ar    1  ZINC000331626032    0.1400
      9 C9        -11.2365    1.0517   61.8508 C.ar    1  ZINC000331626032   -0.1000
     10 C10       -11.7317    1.5600   63.0356 C.ar    1  ZINC000331626032   -0.1100
     11 C11       -10.9104    1.6605   64.1435 C.ar    1  ZINC000331626032   -0.1200
     12 C12        -9.5912    1.2525   64.0692 C.ar    1  ZINC000331626032   -0.1100
     13 C13        -9.0917    0.7370   62.8893 C.ar    1  ZINC000331626032   -0.1200
     14 N14        -9.7061    0.3657   57.2280 N.3     1  ZINC000331626032   -0.5100
     15 C15        -9.1557    0.1306   55.8871 C.3     1  ZINC000331626032    0.0500
     16 C16       -10.2715    0.2553   54.8472 C.3     1  ZINC000331626032   -0.1100
     17 C17       -11.3673   -0.7686   55.1562 C.3     1  ZINC000331626032   -0.1100
     18 C18       -11.8897   -0.5325   56.5760 C.3     1  ZINC000331626032   -0.0400
     19 H19       -12.3357    0.4602   56.6392 H       1  ZINC000331626032    0.1000
     20 C20       -12.9280   -1.5726   56.9095 C.ar    1  ZINC000331626032    0.2300
     21 C21       -14.1478   -1.1977   57.4499 C.ar    1  ZINC000331626032   -0.2900
     22 C22       -15.0749   -2.1860   57.7424 C.ar    1  ZINC000331626032    0.1900
     23 N23       -14.7696   -3.4496   57.4985 N.ar    1  ZINC000331626032   -0.5700
     24 C24       -13.5938   -3.7745   56.9810 C.ar    1  ZINC000331626032    0.5700
     25 N25       -13.3076   -5.1067   56.7381 N.pl3   1  ZINC000331626032   -0.8200
     26 N26       -12.6881   -2.8540   56.6851 N.ar    1  ZINC000331626032   -0.5700
     27 C27       -10.7271   -0.6343   57.5658 C.3     1  ZINC000331626032    0.0700
     28 H28        -7.8591    2.2879   57.5796 H       1  ZINC000331626032    0.0700
     29 H29        -6.7005    1.2939   58.4949 H       1  ZINC000331626032    0.0800
     30 H30        -7.0987    0.8736   56.8117 H       1  ZINC000331626032    0.0700
     31 H31        -8.0934   -1.4992   60.7589 H       1  ZINC000331626032    0.0600
     32 H32        -9.8018   -1.8672   61.0974 H       1  ZINC000331626032    0.0800
     33 H33        -9.2600   -1.6199   59.4200 H       1  ZINC000331626032    0.0800
     34 H34       -11.8782    0.9741   60.9856 H       1  ZINC000331626032    0.1200
     35 H35       -12.7614    1.8799   63.0966 H       1  ZINC000331626032    0.1300
     36 H36       -11.3000    2.0587   65.0688 H       1  ZINC000331626032    0.1300
     37 H37        -8.9521    1.3329   64.9361 H       1  ZINC000331626032    0.1300
     38 H38        -8.0613    0.4186   62.8319 H       1  ZINC000331626032    0.1200
     39 H39        -8.3806    0.8680   55.6782 H       1  ZINC000331626032    0.0900
     40 H40        -8.7265   -0.8703   55.8410 H       1  ZINC000331626032    0.0300
     41 H41       -10.6920    1.2603   54.8832 H       1  ZINC000331626032    0.0800
     42 H42        -9.8658    0.0654   53.8535 H       1  ZINC000331626032    0.0700
     43 H43       -12.1841   -0.6542   54.4437 H       1  ZINC000331626032    0.0700
     44 H44       -10.9563   -1.7755   55.0821 H       1  ZINC000331626032    0.0700
     45 H45       -14.3712   -0.1581   57.6394 H       1  ZINC000331626032    0.1400
     46 H46       -16.0347   -1.9273   58.1645 H       1  ZINC000331626032    0.1700
     47 H47       -13.9641   -5.7896   56.9464 H       1  ZINC000331626032    0.4100
     48 H48       -12.4504   -5.3573   56.3596 H       1  ZINC000331626032    0.4100
     49 H49       -10.2904   -1.6316   57.5118 H       1  ZINC000331626032    0.0400
     50 H50       -11.0932   -0.4525   58.5762 H       1  ZINC000331626032    0.0800
@<TRIPOS>BOND
     1     1     2    1
     2     1    28    1
     3     1    29    1
     4     1    30    1
     5     2     3    1
     6     2     4    1
     7     2    14    1
     8     4     5    2
     9     4     6   am
    10     6     7    1
    11     6     8    1
    12     7    31    1
    13     7    32    1
    14     7    33    1
    15     8    13   ar
    16     8     9   ar
    17     9    10   ar
    18     9    34    1
    19    10    11   ar
    20    10    35    1
    21    11    12   ar
    22    11    36    1
    23    12    13   ar
    24    12    37    1
    25    13    38    1
    26    14    27    1
    27    14    15    1
    28    15    16    1
    29    15    39    1
    30    15    40    1
    31    16    17    1
    32    16    41    1
    33    16    42    1
    34    17    18    1
    35    17    43    1
    36    17    44    1
    37    18    19    1
    38    18    20    1
    39    18    27    1
    40    20    26   ar
    41    20    21   ar
    42    21    22   ar
    43    21    45    1
    44    22    23   ar
    45    22    46    1
    46    23    24   ar
    47    24    25    1
    48    24    26   ar
    49    25    47    1
    50    25    48    1
    51    27    49    1
    52    27    50    1
@<TRIPOS>SUBSTRUCTURE
     1 ZINC000331626032        1 TEMP              0 ****  ****    0 ROOT


##########                                Name:    ZINC000676564986
##########                DOCK_Rotatable_Bonds:                   5
##########                         Heavy_Atoms:                  25
##########                    Molecular_Weight:             347.444
##########                DOCK_Rotatable_Bonds:                   5
##########                       Formal_Charge:          -0.0100005
##########                     HBond_Acceptors:                   6
##########                        HBond_Donors:                   1
##########                         Heavy_Atoms:                  25
##########                          Grid_Score:          -26.054556
##########                     Grid_vdw_energy:          -25.922104
##########                      Grid_es_energy:           -0.132451
##########           Internal_energy_repulsive:            3.842858

@<TRIPOS>MOLECULE
ZINC000676564986
 42 45 1 0 0
SMALL
USER_CHARGES


@<TRIPOS>ATOM
      1 C1         -5.7917    2.3863   53.0596 C.3     1  ZINC000676564986    0.0800
      2 N2         -6.6506    2.5608   54.2336 N.pl3   1  ZINC000676564986   -0.4800
      3 C3         -8.0133    2.5949   54.2383 C.2     1  ZINC000676564986    0.2500
      4 N4         -8.4497    2.7644   55.4526 N.2     1  ZINC000676564986   -0.4600
      5 C5         -7.3977    2.8497   56.3019 C.ar    1  ZINC000676564986   -0.1100
      6 C6         -7.2594    3.0282   57.6887 C.ar    1  ZINC000676564986    0.5100
      7 N7         -8.3727    3.1611   58.5000 N.pl3   1  ZINC000676564986   -0.6900
      8 C8         -8.5745    2.2424   59.6232 C.3     1  ZINC000676564986    0.1700
      9 C9         -9.1286    0.9377   59.1115 C.ar    1  ZINC000676564986   -0.0800
     10 C10        -8.4852   -0.2496   59.4102 C.ar    1  ZINC000676564986   -0.1100
     11 C11        -8.9901   -1.4468   58.9432 C.ar    1  ZINC000676564986   -0.0700
     12 C12       -10.1462   -1.4580   58.1720 C.ar    1  ZINC000676564986   -0.1300
     13 S13       -10.7944   -2.9834   57.5743 S.3     1  ZINC000676564986   -0.0100
     14 C14       -12.3968   -3.0465   58.3045 C.ar    1  ZINC000676564986   -0.1000
     15 C15       -13.4396   -3.6825   57.6416 C.ar    1  ZINC000676564986   -0.1200
     16 C16       -14.6938   -3.7304   58.2171 C.ar    1  ZINC000676564986   -0.1000
     17 C17       -14.9130   -3.1465   59.4515 C.ar    1  ZINC000676564986   -0.1200
     18 C18       -13.8776   -2.5125   60.1140 C.ar    1  ZINC000676564986   -0.1000
     19 C19       -12.6194   -2.4653   59.5470 C.ar    1  ZINC000676564986   -0.1000
     20 C20       -10.7900   -0.2630   57.8738 C.ar    1  ZINC000676564986   -0.0700
     21 C21       -10.2826    0.9300   58.3491 C.ar    1  ZINC000676564986   -0.1100
     22 N22        -6.0346    3.0659   58.2034 N.ar    1  ZINC000676564986   -0.5900
     23 C23        -4.9667    2.9394   57.4371 C.ar    1  ZINC000676564986    0.3600
     24 N24        -5.0480    2.7710   56.1339 N.ar    1  ZINC000676564986   -0.5600
     25 C25        -6.2308    2.7143   55.5308 C.ar    1  ZINC000676564986    0.3000
     26 H26        -5.6082    1.3240   52.8984 H       1  ZINC000676564986    0.0800
     27 H27        -6.2847    2.8069   52.1831 H       1  ZINC000676564986    0.0900
     28 H28        -4.8434    2.8980   53.2238 H       1  ZINC000676564986    0.0900
     29 H29        -8.6386    2.4963   53.3633 H       1  ZINC000676564986    0.2200
     30 H30        -9.0194    3.8626   58.3251 H       1  ZINC000676564986    0.4200
     31 H31        -7.6217    2.0623   60.1209 H       1  ZINC000676564986    0.0800
     32 H32        -9.2766    2.6826   60.3311 H       1  ZINC000676564986    0.0800
     33 H33        -7.5866   -0.2402   60.0093 H       1  ZINC000676564986    0.1300
     34 H34        -8.4870   -2.3736   59.1765 H       1  ZINC000676564986    0.1400
     35 H35       -13.2693   -4.1384   56.6776 H       1  ZINC000676564986    0.1200
     36 H36       -15.5048   -4.2242   57.7025 H       1  ZINC000676564986    0.1300
     37 H37       -15.8952   -3.1851   59.8990 H       1  ZINC000676564986    0.1300
     38 H38       -14.0522   -2.0576   61.0777 H       1  ZINC000676564986    0.1300
     39 H39       -11.8112   -1.9704   60.0649 H       1  ZINC000676564986    0.1300
     40 H40       -11.6886   -0.2679   57.2748 H       1  ZINC000676564986    0.1300
     41 H41       -10.7823    1.8590   58.1178 H       1  ZINC000676564986    0.1300
     42 H42        -3.9900    2.9760   57.8965 H       1  ZINC000676564986    0.2000
@<TRIPOS>BOND
     1     1     2    1
     2     1    26    1
     3     1    27    1
     4     1    28    1
     5     2    25    1
     6     2     3    1
     7     3     4    2
     8     3    29    1
     9     4     5    1
    10     5    25   ar
    11     5     6   ar
    12     6     7    1
    13     6    22   ar
    14     7     8    1
    15     7    30    1
    16     8     9    1
    17     8    31    1
    18     8    32    1
    19     9    21   ar
    20     9    10   ar
    21    10    11   ar
    22    10    33    1
    23    11    12   ar
    24    11    34    1
    25    12    13    1
    26    12    20   ar
    27    13    14    1
    28    14    19   ar
    29    14    15   ar
    30    15    16   ar
    31    15    35    1
    32    16    17   ar
    33    16    36    1
    34    17    18   ar
    35    17    37    1
    36    18    19   ar
    37    18    38    1
    38    19    39    1
    39    20    21   ar
    40    20    40    1
    41    21    41    1
    42    22    23   ar
    43    23    24   ar
    44    23    42    1
    45    24    25   ar
@<TRIPOS>SUBSTRUCTURE
     1 ZINC000676564986        1 TEMP              0 ****  ****    0 ROOT


##########                                Name:    ZINC001023407238
##########                DOCK_Rotatable_Bonds:                   7
##########                         Heavy_Atoms:                  25
##########                    Molecular_Weight:             349.387
##########                DOCK_Rotatable_Bonds:                   7
##########                       Formal_Charge:          -0.0300008
##########                     HBond_Acceptors:                   8
##########                        HBond_Donors:                   2
##########                         Heavy_Atoms:                  25
##########                          Grid_Score:          -26.036324
##########                     Grid_vdw_energy:          -23.837927
##########                      Grid_es_energy:           -2.198396
##########           Internal_energy_repulsive:           22.884661

@<TRIPOS>MOLECULE
ZINC001023407238
 48 50 1 0 0
SMALL
USER_CHARGES


@<TRIPOS>ATOM
      1 C1        -11.7004    2.8282   52.6349 C.3     1  ZINC001023407238   -0.0900
      2 C2        -10.2083    2.7232   52.4508 C.2     1  ZINC001023407238   -0.1100
      3 C3         -9.4259    1.6193   52.7150 C.2     1  ZINC001023407238   -0.0500
      4 C4         -9.8942    0.3275   53.2285 C.2     1  ZINC001023407238    0.6100
      5 O5        -10.2326   -0.5484   52.4544 O.2     1  ZINC001023407238   -0.5100
      6 N6         -9.9497    0.1108   54.5576 N.am    1  ZINC001023407238   -0.6100
      7 C7        -10.3970   -1.1310   55.2053 C.3     1  ZINC001023407238    0.0800
      8 C8        -10.2632   -0.9267   56.7291 C.3     1  ZINC001023407238    0.0900
      9 H9        -11.2147   -0.6178   57.1618 H       1  ZINC001023407238    0.0800
     10 O10        -9.7863   -2.1175   57.3589 O.3     1  ZINC001023407238   -0.5500
     11 C11        -9.2156    0.2127   56.8364 C.3     1  ZINC001023407238    0.1400
     12 H12        -8.2017   -0.1800   56.7588 H       1  ZINC001023407238    0.1200
     13 N13        -9.3887    0.9700   58.0785 N.am    1  ZINC001023407238   -0.7200
     14 C14        -8.3232    1.2356   58.8600 C.2     1  ZINC001023407238    0.5200
     15 O15        -7.2213    0.8463   58.5356 O.2     1  ZINC001023407238   -0.5300
     16 C16        -8.5011    2.0161   60.1368 C.3     1  ZINC001023407238   -0.1300
     17 C17        -9.2852    1.1734   61.1446 C.3     1  ZINC001023407238   -0.1100
     18 H18        -9.1674    1.5688   62.1536 H       1  ZINC001023407238    0.1100
     19 C19       -10.7788    1.0964   60.7542 C.3     1  ZINC001023407238    0.0600
     20 O20       -11.1896   -0.2457   61.1502 O.3     1  ZINC001023407238   -0.3500
     21 C21       -10.1513   -1.0882   61.0531 C.2     1  ZINC001023407238    0.4800
     22 O22       -10.2381   -2.2898   60.9606 O.2     1  ZINC001023407238   -0.4600
     23 C23        -8.8504   -0.3077   61.0798 C.3     1  ZINC001023407238   -0.1800
     24 C24        -9.5661    1.0774   55.6025 C.3     1  ZINC001023407238    0.1000
     25 N25        -8.1252    1.9499   52.4087 N.pl3   1  ZINC001023407238   -0.4200
     26 C26        -6.9649    1.0655   52.5415 C.3     1  ZINC001023407238    0.0700
     27 C27        -8.0968    3.2298   51.9640 C.2     1  ZINC001023407238    0.0100
     28 C28        -9.3575    3.7252   51.9739 C.2     1  ZINC001023407238   -0.2000
     29 H29       -12.2023    2.5175   51.7186 H       1  ZINC001023407238    0.0600
     30 H30       -12.0114    2.1825   53.4563 H       1  ZINC001023407238    0.0600
     31 H31       -11.9667    3.8602   52.8631 H       1  ZINC001023407238    0.0700
     32 H32       -11.4373   -1.3294   54.9478 H       1  ZINC001023407238    0.0800
     33 H33        -9.7687   -1.9626   54.8862 H       1  ZINC001023407238    0.0800
     34 H34        -9.2439   -1.9575   58.1433 H       1  ZINC001023407238    0.3900
     35 H35       -10.2702    1.2804   58.3385 H       1  ZINC001023407238    0.4100
     36 H36        -7.5235    2.2621   60.5514 H       1  ZINC001023407238    0.1000
     37 H37        -9.0486    2.9351   59.9276 H       1  ZINC001023407238    0.1100
     38 H38       -11.3534    1.8463   61.2978 H       1  ZINC001023407238    0.1200
     39 H39       -10.8985    1.2295   59.6790 H       1  ZINC001023407238    0.0800
     40 H40        -8.2778   -0.4934   60.1710 H       1  ZINC001023407238    0.1100
     41 H41        -8.2651   -0.5758   61.9594 H       1  ZINC001023407238    0.1200
     42 H42        -8.6989    1.6578   55.2873 H       1  ZINC001023407238    0.0900
     43 H43       -10.4040    1.7374   55.8273 H       1  ZINC001023407238    0.0800
     44 H44        -6.7676    0.5791   51.5862 H       1  ZINC001023407238    0.0800
     45 H45        -6.0942    1.6505   52.8380 H       1  ZINC001023407238    0.0900
     46 H46        -7.1695    0.3090   53.2990 H       1  ZINC001023407238    0.0800
     47 H47        -7.2138    3.7660   51.6493 H       1  ZINC001023407238    0.1700
     48 H48        -9.6522    4.7199   51.6737 H       1  ZINC001023407238    0.1400
@<TRIPOS>BOND
     1     1     2    1
     2     1    29    1
     3     1    30    1
     4     1    31    1
     5     2    28    1
     6     2     3    2
     7     3     4    1
     8     3    25    1
     9     4     5    2
    10     4     6   am
    11     6    24    1
    12     6     7    1
    13     7     8    1
    14     7    32    1
    15     7    33    1
    16     8     9    1
    17     8    10    1
    18     8    11    1
    19    10    34    1
    20    11    12    1
    21    11    13    1
    22    11    24    1
    23    13    14   am
    24    13    35    1
    25    14    15    2
    26    14    16    1
    27    16    17    1
    28    16    36    1
    29    16    37    1
    30    17    18    1
    31    17    23    1
    32    17    19    1
    33    19    20    1
    34    19    38    1
    35    19    39    1
    36    20    21    1
    37    21    22    2
    38    21    23    1
    39    23    40    1
    40    23    41    1
    41    24    42    1
    42    24    43    1
    43    25    26    1
    44    25    27    1
    45    26    44    1
    46    26    45    1
    47    26    46    1
    48    27    28    2
    49    27    47    1
    50    28    48    1
@<TRIPOS>SUBSTRUCTURE
     1 ZINC001023407238        1 TEMP              0 ****  ****    0 ROOT


##########                                Name:    ZINC000656860804
##########                DOCK_Rotatable_Bonds:                   2
##########                         Heavy_Atoms:                  19
##########                    Molecular_Weight:             388.068
##########                DOCK_Rotatable_Bonds:                   2
##########                       Formal_Charge:          8.9407e-08
##########                     HBond_Acceptors:                   8
##########                        HBond_Donors:                   1
##########                         Heavy_Atoms:                  19
##########                          Grid_Score:          -26.002766
##########                     Grid_vdw_energy:          -25.766870
##########                      Grid_es_energy:           -0.235895
##########           Internal_energy_repulsive:           13.830703

@<TRIPOS>MOLECULE
ZINC000656860804
 28 29 1 0 0
SMALL
USER_CHARGES


@<TRIPOS>ATOM
      1 O1         -8.7921   -0.1505   62.0567 O.2     1  ZINC000656860804   -0.5400
      2 C2         -8.7746   -0.1809   60.8444 C.2     1  ZINC000656860804    0.5100
      3 C3         -8.9009   -1.5136   60.1581 C.3     1  ZINC000656860804    0.1100
      4 N4         -9.1616   -1.2901   58.7283 N.am    1  ZINC000656860804   -1.0000
      5 S5        -10.2879   -2.1847   57.9077 S.o2    1  ZINC000656860804    2.6900
      6 O6        -10.3886   -1.6115   56.6113 O.2     1  ZINC000656860804   -0.9200
      7 O7         -9.9574   -3.5485   58.1310 O.2     1  ZINC000656860804   -0.9300
      8 C8        -11.8418   -1.9143   58.6933 C.ar    1  ZINC000656860804   -0.6500
      9 C9        -11.9736   -0.9139   59.6375 C.ar    1  ZINC000656860804    0.0100
     10 C10       -13.1934   -0.7012   60.2546 C.ar    1  ZINC000656860804   -0.0400
     11 Cl11      -13.3591    0.5559   61.4403 Cl      1  ZINC000656860804   -0.0200
     12 C12       -14.2821   -1.4909   59.9259 C.ar    1  ZINC000656860804    0.0200
     13 Cl13      -15.8133   -1.2244   60.6993 Cl      1  ZINC000656860804   -0.0100
     14 C14       -14.1494   -2.4921   58.9806 C.ar    1  ZINC000656860804   -0.0900
     15 C15       -12.9309   -2.7000   58.3603 C.ar    1  ZINC000656860804    0.0100
     16 Br16      -12.7493   -4.0686   57.0682 Br      1  ZINC000656860804    0.0100
     17 C17        -8.3807   -0.2380   58.0559 C.3     1  ZINC000656860804    0.0900
     18 C18        -8.6980    1.0976   58.7312 C.3     1  ZINC000656860804    0.0800
     19 N19        -8.6498    0.9694   60.1809 N.am    1  ZINC000656860804   -0.7100
     20 H20        -7.9738   -2.0747   60.2768 H       1  ZINC000656860804    0.1200
     21 H21        -9.7269   -2.0734   60.5967 H       1  ZINC000656860804    0.1200
     22 H22       -11.1241   -0.2983   59.8940 H       1  ZINC000656860804    0.1700
     23 H23       -14.9981   -3.1086   58.7241 H       1  ZINC000656860804    0.1700
     24 H24        -7.3163   -0.4536   58.1492 H       1  ZINC000656860804    0.1000
     25 H25        -8.6562   -0.1921   57.0023 H       1  ZINC000656860804    0.1200
     26 H26        -7.9710    1.8436   58.4102 H       1  ZINC000656860804    0.1000
     27 H27        -9.6964    1.4205   58.4361 H       1  ZINC000656860804    0.0800
     28 H28        -8.5108    1.7766   60.7006 H       1  ZINC000656860804    0.4000
@<TRIPOS>BOND
     1     1     2    2
     2     2    19   am
     3     2     3    1
     4     3     4    1
     5     3    20    1
     6     3    21    1
     7     4     5   am
     8     4    17    1
     9     5     6    2
    10     5     7    2
    11     5     8    1
    12     8    15   ar
    13     8     9   ar
    14     9    10   ar
    15     9    22    1
    16    10    11    1
    17    10    12   ar
    18    12    13    1
    19    12    14   ar
    20    14    15   ar
    21    14    23    1
    22    15    16    1
    23    17    18    1
    24    17    24    1
    25    17    25    1
    26    18    19    1
    27    18    26    1
    28    18    27    1
    29    19    28    1
@<TRIPOS>SUBSTRUCTURE
     1 ZINC000656860804        1 TEMP              0 ****  ****    0 ROOT


##########                                Name:     oleObject42.pdb
##########                DOCK_Rotatable_Bonds:                   9
##########                         Heavy_Atoms:                  36
##########                    Molecular_Weight:             527.493
##########                DOCK_Rotatable_Bonds:                   9
##########                       Formal_Charge:         9.99384e-05
##########                     HBond_Acceptors:                   8
##########                        HBond_Donors:                   0
##########                         Heavy_Atoms:                  36
##########                          Grid_Score:          -25.983526
##########                     Grid_vdw_energy:          -26.369967
##########                      Grid_es_energy:            0.386441
##########           Internal_energy_repulsive:           36.287819

@<TRIPOS>MOLECULE
oleObject42.pdb
 68 71 1 0 0
SMALL
NO_CHARGES


@<TRIPOS>ATOM
      1 C         -11.6868    4.0384   56.2854 C.ar    1  UNL        -0.0435
      2 C         -13.0244    4.1398   56.6945 C.ar    1  UNL        -0.0559
      3 C         -13.9312    3.1253   56.3342 C.ar    1  UNL        -0.0272
      4 C         -13.4520    2.0342   55.5660 C.ar    1  UNL         0.0699
      5 N         -12.1581    1.9490   55.1778 N.ar    1  UNL        -0.2586
      6 C         -11.2984    2.9238   55.5277 C.ar    1  UNL         0.0272
      7 C         -14.3765    0.8838   55.1324 C.3     1  UNL         0.1101
      8 C         -14.1393    0.4267   53.6799 C.ar    1  UNL         0.0699
      9 C         -15.2206    0.0934   52.8256 C.ar    1  UNL        -0.0272
     10 C         -14.9333   -0.3272   51.5134 C.ar    1  UNL        -0.0559
     11 C         -13.5965   -0.4037   51.0970 C.ar    1  UNL        -0.0435
     12 C         -12.5882   -0.0582   52.0087 C.ar    1  UNL         0.0272
     13 N         -12.8529    0.3436   53.2657 N.ar    1  UNL        -0.2586
     14 C         -16.6731    0.1768   53.2821 C.3     1  UNL        -0.0379
     15 N         -14.4209   -0.2254   56.1253 N.am    1  UNL        -0.2902
     16 C         -13.2736   -0.7919   56.6823 C.2     1  UNL         0.2180
     17 O         -12.1795   -0.5792   56.1861 O.2     1  UNL        -0.2772
     18 C         -13.4768   -1.9390   57.7024 C.3     1  UNL         0.0385
     19 C         -13.8158   -1.3887   59.1087 C.3     1  UNL        -0.0289
     20 C         -12.5808   -0.7909   59.8161 C.3     1  UNL        -0.0010
     21 N         -11.4728   -1.7678   59.8881 N.4     1  UNL        -0.3010
     22 C         -11.0638   -2.3099   58.5734 C.3     1  UNL        -0.0010
     23 C         -12.2591   -2.8966   57.7845 C.3     1  UNL        -0.0289
     24 C         -10.3422   -1.3339   60.7385 C.3     1  UNL         0.0222
     25 C          -9.3065   -0.4519   60.0061 C.3     1  UNL         0.0661
     26 O          -8.5222    0.2245   61.0011 O.3     1  UNL        -0.3432
     27 C          -9.1617    0.9913   61.9439 C.ar    1  UNL         0.0937
     28 C          -9.9376    2.0844   61.5227 C.ar    1  UNL        -0.0288
     29 C         -10.5986    2.8841   62.4697 C.ar    1  UNL        -0.0408
     30 C         -10.4800    2.5912   63.8386 C.ar    1  UNL         0.0422
     31 C          -9.7006    1.5021   64.2632 C.ar    1  UNL        -0.0221
     32 C          -9.0389    0.7008   63.3176 C.ar    1  UNL         0.0723
     33 CL         -8.0681   -0.6499   63.8737 Cl      1  UNL        -0.0814
     34 CL        -11.3034    3.5880   65.0190 Cl      1  UNL        -0.0843
     35 C         -15.7455   -0.8254   56.3827 C.3     1  UNL         0.0038
     36 C         -15.3854    3.2311   56.7806 C.3     1  UNL        -0.0379
     37 H         -10.9658    4.8061   56.5505 H       1  UNL         0.0639
     38 H         -13.3493    4.9929   57.2834 H       1  UNL         0.0627
     39 H         -10.2691    2.8063   55.1911 H       1  UNL         0.0840
     40 H         -15.3818    1.3127   55.1327 H       1  UNL         0.0643
     41 H         -15.7324   -0.5900   50.8258 H       1  UNL         0.0627
     42 H         -13.3462   -0.7236   50.0899 H       1  UNL         0.0639
     43 H         -11.5374   -0.1039   51.7258 H       1  UNL         0.0840
     44 H         -16.8720   -0.5282   54.0987 H       1  UNL         0.0280
     45 H         -17.3667   -0.0635   52.4667 H       1  UNL         0.0280
     46 H         -16.9223    1.1858   53.6331 H       1  UNL         0.0280
     47 H         -14.3205   -2.5525   57.3704 H       1  UNL         0.0402
     48 H         -14.2124   -2.2057   59.7254 H       1  UNL         0.0288
     49 H         -14.6065   -0.6319   59.0435 H       1  UNL         0.0288
     50 H         -12.8707   -0.4810   60.8283 H       1  UNL         0.0431
     51 H         -12.2586    0.1058   59.2716 H       1  UNL         0.0431
     52 H         -10.3161   -3.1008   58.7148 H       1  UNL         0.0431
     53 H         -10.5934   -1.5214   57.9743 H       1  UNL         0.0431
     54 H         -12.5767   -3.8216   58.2831 H       1  UNL         0.0288
     55 H         -11.9367   -3.1820   56.7748 H       1  UNL         0.0288
     56 H          -9.8284   -2.2179   61.1373 H       1  UNL         0.0455
     57 H         -10.7316   -0.7727   61.5977 H       1  UNL         0.0455
     58 H          -9.8181    0.2813   59.3706 H       1  UNL         0.0586
     59 H          -8.6580   -1.0719   59.3750 H       1  UNL         0.0586
     60 H         -10.0260    2.3096   60.4638 H       1  UNL         0.0652
     61 H         -11.1995    3.7281   62.1427 H       1  UNL         0.0639
     62 H          -9.6088    1.2802   65.3226 H       1  UNL         0.0655
     63 H         -16.5373   -0.0735   56.2754 H       1  UNL         0.0433
     64 H         -15.7845   -1.2238   57.4044 H       1  UNL         0.0433
     65 H         -15.9250   -1.6423   55.6726 H       1  UNL         0.0433
     66 H         -15.5542    4.1223   57.3977 H       1  UNL         0.0280
     67 H         -15.6819    2.3616   57.3797 H       1  UNL         0.0280
     68 H         -16.0597    3.2993   55.9184 H       1  UNL         0.0280
@<TRIPOS>BOND
     1     1     2   ar
     2     1     6   ar
     3     1    37    1
     4     2     3   ar
     5     2    38    1
     6     3     4   ar
     7     3    36    1
     8     4     5   ar
     9     4     7    1
    10     5     6   ar
    11     6    39    1
    12     7     8    1
    13     7    15    1
    14     7    40    1
    15     8     9   ar
    16     8    13   ar
    17     9    10   ar
    18     9    14    1
    19    10    11   ar
    20    10    41    1
    21    11    12   ar
    22    11    42    1
    23    12    13   ar
    24    12    43    1
    25    14    44    1
    26    14    45    1
    27    14    46    1
    28    15    16   am
    29    15    35    1
    30    16    17    2
    31    16    18    1
    32    18    19    1
    33    18    23    1
    34    18    47    1
    35    19    20    1
    36    19    48    1
    37    19    49    1
    38    20    21    1
    39    20    50    1
    40    20    51    1
    41    21    22    1
    42    21    24    1
    43    22    23    1
    44    22    52    1
    45    22    53    1
    46    23    54    1
    47    23    55    1
    48    24    25    1
    49    24    56    1
    50    24    57    1
    51    25    26    1
    52    25    58    1
    53    25    59    1
    54    26    27    1
    55    27    28   ar
    56    27    32   ar
    57    28    29   ar
    58    28    60    1
    59    29    30   ar
    60    29    61    1
    61    30    31   ar
    62    30    34    1
    63    31    32   ar
    64    31    62    1
    65    32    33    1
    66    35    63    1
    67    35    64    1
    68    35    65    1
    69    36    66    1
    70    36    67    1
    71    36    68    1
@<TRIPOS>SUBSTRUCTURE
     1 UNL         1 TEMP              0 ****  ****    0 ROOT


##########                                Name:    ZINC000438893617
##########                DOCK_Rotatable_Bonds:                   5
##########                         Heavy_Atoms:                  29
##########                    Molecular_Weight:             412.596
##########                DOCK_Rotatable_Bonds:                   5
##########                       Formal_Charge:           0.0600001
##########                     HBond_Acceptors:                   5
##########                        HBond_Donors:                   0
##########                         Heavy_Atoms:                  29
##########                          Grid_Score:          -25.966709
##########                     Grid_vdw_energy:          -26.036825
##########                      Grid_es_energy:            0.070115
##########           Internal_energy_repulsive:          168.418213

@<TRIPOS>MOLECULE
ZINC000438893617
 61 66 1 0 0
SMALL
USER_CHARGES


@<TRIPOS>ATOM
      1 C1         -0.9826    5.1639   55.3825 C.3     1  ZINC000438893617   -0.1000
      2 C2         -0.9697    4.1156   56.4650 C.2     1  ZINC000438893617   -0.0900
      3 C3         -2.0880    3.6170   56.9943 C.2     1  ZINC000438893617   -0.1600
      4 C4         -3.4875    4.0145   56.6012 C.3     1  ZINC000438893617   -0.0400
      5 H5         -3.5598    4.8230   55.8738 H       1  ZINC000438893617    0.1400
      6 C6         -4.5736    3.9317   57.6756 C.3     1  ZINC000438893617   -0.1400
      7 C7         -4.5438    2.9096   56.5366 C.3     1  ZINC000438893617   -0.1800
      8 H8         -4.2268    1.8953   56.7787 H       1  ZINC000438893617    0.1300
      9 C9         -5.6053    3.0223   55.4727 C.2     1  ZINC000438893617    0.5500
     10 O10        -5.4534    3.7863   54.5431 O.2     1  ZINC000438893617   -0.5300
     11 N11        -6.7233    2.2739   55.5543 N.am    1  ZINC000438893617   -0.6100
     12 C12        -6.9227    1.3472   56.6773 C.3     1  ZINC000438893617    0.0900
     13 C13        -8.2565    1.6806   57.3569 C.3     1  ZINC000438893617    0.1000
     14 N14        -9.2983    1.7773   56.3248 N.am    1  ZINC000438893617   -0.6100
     15 C15       -10.4167    1.0297   56.4069 C.2     1  ZINC000438893617    0.5300
     16 O16       -11.2695    1.1181   55.5490 O.2     1  ZINC000438893617   -0.5300
     17 C17       -10.6075    0.0840   57.5646 C.3     1  ZINC000438893617   -0.0700
     18 C18       -11.9729   -0.5964   57.4476 C.3     1  ZINC000438893617   -0.1100
     19 C19       -12.1666   -1.5565   58.6229 C.3     1  ZINC000438893617   -0.0800
     20 C20       -12.0969   -0.7752   59.9366 C.3     1  ZINC000438893617   -0.1100
     21 C21       -10.7315   -0.0949   60.0535 C.3     1  ZINC000438893617   -0.0800
     22 C22        -9.6295   -1.1560   60.0322 C.3     1  ZINC000438893617   -0.1100
     23 C23        -9.6992   -1.9373   58.7185 C.3     1  ZINC000438893617   -0.0900
     24 C24       -11.0647   -2.6177   58.6016 C.3     1  ZINC000438893617   -0.1100
     25 C25        -9.5056   -0.9772   57.5431 C.3     1  ZINC000438893617   -0.0900
     26 C26       -10.5378    0.8653   58.8782 C.3     1  ZINC000438893617   -0.1200
     27 C27        -9.0989    2.7041   55.2017 C.3     1  ZINC000438893617    0.0700
     28 C28        -7.7674    2.3747   54.5251 C.3     1  ZINC000438893617    0.1000
     29 S29        -1.6794    2.4245   58.2208 S.3     1  ZINC000438893617    0.1000
     30 C30         0.0379    2.6773   57.9374 C.2     1  ZINC000438893617   -0.2100
     31 C31         0.2034    3.5927   56.9814 C.2     1  ZINC000438893617   -0.1300
     32 H32        -0.9995    4.6784   54.4067 H       1  ZINC000438893617    0.0700
     33 H33        -1.8685    5.7892   55.4927 H       1  ZINC000438893617    0.0700
     34 H34        -0.0888    5.7823   55.4650 H       1  ZINC000438893617    0.0700
     35 H35        -4.2759    3.5898   58.6668 H       1  ZINC000438893617    0.1100
     36 H36        -5.3606    4.6856   57.6549 H       1  ZINC000438893617    0.1100
     37 H37        -6.9473    0.3226   56.3062 H       1  ZINC000438893617    0.0800
     38 H38        -6.1090    1.4600   57.3937 H       1  ZINC000438893617    0.1000
     39 H39        -8.5141    0.8920   58.0639 H       1  ZINC000438893617    0.1100
     40 H40        -8.1720    2.6323   57.8815 H       1  ZINC000438893617    0.0700
     41 H41       -12.7580    0.1597   57.4629 H       1  ZINC000438893617    0.0800
     42 H42       -12.0226   -1.1530   56.5118 H       1  ZINC000438893617    0.0700
     43 H43       -13.1395   -2.0411   58.5397 H       1  ZINC000438893617    0.0800
     44 H44       -12.8820   -0.0192   59.9519 H       1  ZINC000438893617    0.0600
     45 H45       -12.2350   -1.4592   60.7739 H       1  ZINC000438893617    0.0700
     46 H46       -10.6818    0.4617   60.9893 H       1  ZINC000438893617    0.0800
     47 H47        -8.6567   -0.6714   60.1155 H       1  ZINC000438893617    0.0600
     48 H48        -9.7674   -1.8400   60.8695 H       1  ZINC000438893617    0.0700
     49 H49        -8.9141   -2.6933   58.7033 H       1  ZINC000438893617    0.0700
     50 H50       -11.2027   -3.3017   59.4390 H       1  ZINC000438893617    0.0700
     51 H51       -11.1143   -3.1743   57.6658 H       1  ZINC000438893617    0.0600
     52 H52        -9.5552   -1.5338   56.6073 H       1  ZINC000438893617    0.0700
     53 H53        -8.5327   -0.4925   57.6264 H       1  ZINC000438893617    0.0700
     54 H54        -9.5650    1.3499   58.9614 H       1  ZINC000438893617    0.0700
     55 H55       -11.3228    1.6212   58.8934 H       1  ZINC000438893617    0.0800
     56 H56        -9.9126    2.5913   54.4854 H       1  ZINC000438893617    0.1300
     57 H57        -9.0742    3.7286   55.5729 H       1  ZINC000438893617    0.0800
     58 H58        -7.5112    3.1640   53.8184 H       1  ZINC000438893617    0.1100
     59 H59        -7.8494    1.4229   54.0003 H       1  ZINC000438893617    0.0700
     60 H60         0.8362    2.1663   58.4550 H       1  ZINC000438893617    0.1700
     61 H61         1.1789    3.9080   56.6415 H       1  ZINC000438893617    0.1400
@<TRIPOS>BOND
     1     1     2    1
     2     1    32    1
     3     1    33    1
     4     1    34    1
     5     2    31    1
     6     2     3    2
     7     3     4    1
     8     3    29    1
     9     4     5    1
    10     4     7    1
    11     4     6    1
    12     6     7    1
    13     6    35    1
    14     6    36    1
    15     7     8    1
    16     7     9    1
    17     9    10    2
    18     9    11   am
    19    11    28    1
    20    11    12    1
    21    12    13    1
    22    12    37    1
    23    12    38    1
    24    13    14    1
    25    13    39    1
    26    13    40    1
    27    14    15   am
    28    14    27    1
    29    15    16    2
    30    15    17    1
    31    17    25    1
    32    17    26    1
    33    17    18    1
    34    18    19    1
    35    18    41    1
    36    18    42    1
    37    19    24    1
    38    19    20    1
    39    19    43    1
    40    20    21    1
    41    20    44    1
    42    20    45    1
    43    21    22    1
    44    21    26    1
    45    21    46    1
    46    22    23    1
    47    22    47    1
    48    22    48    1
    49    23    24    1
    50    23    25    1
    51    23    49    1
    52    24    50    1
    53    24    51    1
    54    25    52    1
    55    25    53    1
    56    26    54    1
    57    26    55    1
    58    27    28    1
    59    27    56    1
    60    27    57    1
    61    28    58    1
    62    28    59    1
    63    29    30    1
    64    30    31    2
    65    30    60    1
    66    31    61    1
@<TRIPOS>SUBSTRUCTURE
     1 ZINC000438893617        1 TEMP              0 ****  ****    0 ROOT


##########                                Name:    ZINC000523878927
##########                DOCK_Rotatable_Bonds:                   8
##########                         Heavy_Atoms:                  27
##########                    Molecular_Weight:             376.474
##########                DOCK_Rotatable_Bonds:                   8
##########                       Formal_Charge:          0.00999957
##########                     HBond_Acceptors:                   7
##########                        HBond_Donors:                   3
##########                         Heavy_Atoms:                  27
##########                          Grid_Score:          -25.946251
##########                     Grid_vdw_energy:          -25.187601
##########                      Grid_es_energy:           -0.758650
##########           Internal_energy_repulsive:            7.166801

@<TRIPOS>MOLECULE
ZINC000523878927
 56 58 1 0 0
SMALL
USER_CHARGES


@<TRIPOS>ATOM
      1 C1        -10.1225    1.6962   62.9778 C.3     1  ZINC000523878927   -0.1500
      2 C2        -10.7182    2.9687   62.3724 C.3     1  ZINC000523878927   -0.0900
      3 H3         -9.9131    3.6370   62.0668 H       1  ZINC000523878927    0.0700
      4 C4        -11.5934    3.6680   63.4146 C.3     1  ZINC000523878927   -0.1200
      5 C5        -12.7235    2.7300   63.8435 C.3     1  ZINC000523878927   -0.1200
      6 C6        -13.5740    2.3654   62.6250 C.3     1  ZINC000523878927   -0.1100
      7 C7        -12.6987    1.6662   61.5830 C.3     1  ZINC000523878927   -0.1000
      8 H8        -12.2744    0.7596   62.0142 H       1  ZINC000523878927    0.0800
      9 C9        -13.5492    1.3018   60.3644 C.3     1  ZINC000523878927    0.1400
     10 N10       -12.7370    0.5401   59.4122 N.am    1  ZINC000523878927   -0.7400
     11 C11       -12.6867   -0.8042   59.4937 C.2     1  ZINC000523878927    0.7200
     12 O12       -13.3142   -1.3848   60.3583 O.2     1  ZINC000523878927   -0.5800
     13 N13       -11.9408   -1.5050   58.6168 N.am    1  ZINC000523878927   -0.6400
     14 C14       -11.7963   -2.9719   58.5912 C.3     1  ZINC000523878927    0.1000
     15 C15       -11.4046   -3.3064   57.1303 C.3     1  ZINC000523878927   -0.1400
     16 C16       -10.4828   -2.1104   56.7734 C.3     1  ZINC000523878927    0.1500
     17 H17        -9.4691   -2.2837   57.1344 H       1  ZINC000523878927    0.1100
     18 N18       -10.4823   -1.8697   55.3282 N.am    1  ZINC000523878927   -0.7300
     19 C19        -9.7019   -0.9027   54.8064 C.2     1  ZINC000523878927    0.7100
     20 O20        -8.9971   -0.2311   55.5349 O.2     1  ZINC000523878927   -0.5700
     21 N21        -9.7026   -0.6802   53.4771 N.am    1  ZINC000523878927   -0.6800
     22 C22        -8.8916    0.3248   52.9349 C.ar    1  ZINC000523878927    0.1500
     23 C23        -7.7012   -0.0082   52.3026 C.ar    1  ZINC000523878927   -0.1200
     24 C24        -6.9031    0.9842   51.7681 C.ar    1  ZINC000523878927   -0.1300
     25 C25        -7.2892    2.3106   51.8630 C.ar    1  ZINC000523878927    0.0800
     26 F26        -6.5070    3.2800   51.3400 F       1  ZINC000523878927   -0.1400
     27 C27        -8.4762    2.6447   52.4928 C.ar    1  ZINC000523878927   -0.1300
     28 C28        -9.2798    1.6548   53.0239 C.ar    1  ZINC000523878927   -0.0900
     29 C29       -11.1413   -0.9334   57.5233 C.3     1  ZINC000523878927    0.1200
     30 C30       -11.5686    2.6042   61.1539 C.3     1  ZINC000523878927   -0.1100
     31 H31        -9.4990    1.1980   62.2354 H       1  ZINC000523878927    0.0500
     32 H32        -9.5167    1.9558   63.8459 H       1  ZINC000523878927    0.0500
     33 H33       -10.9276    1.0279   63.2834 H       1  ZINC000523878927    0.0600
     34 H34       -10.9876    3.9276   64.2826 H       1  ZINC000523878927    0.0600
     35 H35       -12.0178    4.5746   62.9832 H       1  ZINC000523878927    0.0600
     36 H36       -12.2991    1.8233   64.2747 H       1  ZINC000523878927    0.0700
     37 H37       -13.3470    3.2281   64.5860 H       1  ZINC000523878927    0.0600
     38 H38       -14.3791    1.6971   62.9307 H       1  ZINC000523878927    0.0600
     39 H39       -13.9983    3.2721   62.1937 H       1  ZINC000523878927    0.0600
     40 H40       -14.3989    0.6976   60.6820 H       1  ZINC000523878927    0.0700
     41 H41       -13.9094    2.2131   59.8871 H       1  ZINC000523878927    0.0700
     42 H42       -12.2355    1.0034   58.7233 H       1  ZINC000523878927    0.3900
     43 H43       -11.0099   -3.2876   59.2767 H       1  ZINC000523878927    0.0800
     44 H44       -12.7408   -3.4506   58.8498 H       1  ZINC000523878927    0.0800
     45 H45       -10.8595   -4.2489   57.0780 H       1  ZINC000523878927    0.1000
     46 H46       -12.2830   -3.3287   56.4855 H       1  ZINC000523878927    0.0800
     47 H47       -11.0435   -2.4063   54.7470 H       1  ZINC000523878927    0.4000
     48 H48       -10.2648   -1.2161   52.8961 H       1  ZINC000523878927    0.4100
     49 H49        -7.3994   -1.0427   52.2291 H       1  ZINC000523878927    0.1400
     50 H50        -5.9771    0.7256   51.2762 H       1  ZINC000523878927    0.1400
     51 H51        -8.7757    3.6799   52.5657 H       1  ZINC000523878927    0.1400
     52 H52       -10.2057    1.9158   53.5148 H       1  ZINC000523878927    0.1500
     53 H53       -11.7821   -0.3725   56.8429 H       1  ZINC000523878927    0.0700
     54 H54       -10.3725   -0.2798   57.9352 H       1  ZINC000523878927    0.0800
     55 H55       -11.9931    3.5109   60.7226 H       1  ZINC000523878927    0.0700
     56 H56       -10.9451    2.1062   60.4115 H       1  ZINC000523878927    0.0700
@<TRIPOS>BOND
     1     1     2    1
     2     1    31    1
     3     1    32    1
     4     1    33    1
     5     2     3    1
     6     2    30    1
     7     2     4    1
     8     4     5    1
     9     4    34    1
    10     4    35    1
    11     5     6    1
    12     5    36    1
    13     5    37    1
    14     6     7    1
    15     6    38    1
    16     6    39    1
    17     7     8    1
    18     7     9    1
    19     7    30    1
    20     9    10    1
    21     9    40    1
    22     9    41    1
    23    10    11   am
    24    10    42    1
    25    11    12    2
    26    11    13   am
    27    13    29    1
    28    13    14    1
    29    14    15    1
    30    14    43    1
    31    14    44    1
    32    15    16    1
    33    15    45    1
    34    15    46    1
    35    16    17    1
    36    16    18    1
    37    16    29    1
    38    18    19   am
    39    18    47    1
    40    19    20    2
    41    19    21   am
    42    21    22    1
    43    21    48    1
    44    22    28   ar
    45    22    23   ar
    46    23    24   ar
    47    23    49    1
    48    24    25   ar
    49    24    50    1
    50    25    26    1
    51    25    27   ar
    52    27    28   ar
    53    27    51    1
    54    28    52    1
    55    29    53    1
    56    29    54    1
    57    30    55    1
    58    30    56    1
@<TRIPOS>SUBSTRUCTURE
     1 ZINC000523878927        1 TEMP              0 ****  ****    0 ROOT


##########                                Name:    ZINC000506156755
##########                DOCK_Rotatable_Bonds:                   7
##########                         Heavy_Atoms:                  30
##########                    Molecular_Weight:             400.434
##########                DOCK_Rotatable_Bonds:                   7
##########                       Formal_Charge:          -0.0200001
##########                     HBond_Acceptors:                   6
##########                        HBond_Donors:                   1
##########                         Heavy_Atoms:                  30
##########                          Grid_Score:          -25.944313
##########                     Grid_vdw_energy:          -25.549875
##########                      Grid_es_energy:           -0.394438
##########           Internal_energy_repulsive:           19.422770

@<TRIPOS>MOLECULE
ZINC000506156755
 50 53 1 0 0
SMALL
USER_CHARGES


@<TRIPOS>ATOM
      1 C1         -8.4963   -0.3702   59.0492 C.3     1  ZINC000506156755   -0.1600
      2 C2         -9.9978   -0.2148   58.8001 C.3     1  ZINC000506156755    0.1900
      3 H3        -10.4429   -1.1965   58.6383 H       1  ZINC000506156755    0.1000
      4 N4        -10.2125    0.6200   57.6155 N.am    1  ZINC000506156755   -0.7200
      5 C5        -10.2113    0.0621   56.3887 C.2     1  ZINC000506156755    0.5000
      6 O6        -10.0310   -1.1309   56.2653 O.2     1  ZINC000506156755   -0.5200
      7 C7        -10.4339    0.9205   55.1702 C.3     1  ZINC000506156755    0.0900
      8 N8         -9.1473    1.1988   54.5273 N.am    1  ZINC000506156755   -0.5600
      9 C9         -8.6024    0.4435   53.5566 C.2     1  ZINC000506156755    0.5800
     10 O10        -9.0914   -0.5616   53.0818 O.2     1  ZINC000506156755   -0.4600
     11 C11        -7.3091    1.0421   53.1641 C.ar    1  ZINC000506156755   -0.1400
     12 C12        -6.3303    0.7114   52.2413 C.ar    1  ZINC000506156755   -0.0400
     13 C13        -5.2026    1.5089   52.1199 C.ar    1  ZINC000506156755   -0.0900
     14 C14        -5.0489    2.6302   52.9126 C.ar    1  ZINC000506156755   -0.0900
     15 C15        -6.0203    2.9735   53.8406 C.ar    1  ZINC000506156755   -0.0400
     16 C16        -7.1523    2.1861   53.9730 C.ar    1  ZINC000506156755   -0.1400
     17 C17        -8.3581    2.2465   54.8260 C.2     1  ZINC000506156755    0.5800
     18 O18        -8.5956    3.0983   55.6583 O.2     1  ZINC000506156755   -0.4600
     19 C19       -10.6407    0.4370   59.9972 C.ar    1  ZINC000506156755   -0.1200
     20 C20        -9.8801    0.7453   61.1080 C.ar    1  ZINC000506156755   -0.0800
     21 C21       -10.4693    1.3438   62.2067 C.ar    1  ZINC000506156755   -0.1400
     22 C22       -11.8207    1.6353   62.1962 C.ar    1  ZINC000506156755   -0.0800
     23 C23       -12.5861    1.3291   61.0876 C.ar    1  ZINC000506156755   -0.1900
     24 C24       -11.9964    0.7334   59.9821 C.ar    1  ZINC000506156755    0.1300
     25 O25       -12.7469    0.4315   58.8902 O.3     1  ZINC000506156755   -0.2500
     26 C26       -13.5693   -0.6480   58.9600 C.ar    1  ZINC000506156755    0.0800
     27 C27       -13.4401   -1.5539   60.0030 C.ar    1  ZINC000506156755   -0.1400
     28 C28       -14.2774   -2.6505   60.0714 C.ar    1  ZINC000506156755   -0.1000
     29 C29       -15.2434   -2.8458   59.1017 C.ar    1  ZINC000506156755   -0.1200
     30 C30       -15.3741   -1.9447   58.0612 C.ar    1  ZINC000506156755   -0.1000
     31 C31       -14.5433   -0.8433   57.9911 C.ar    1  ZINC000506156755   -0.1200
     32 H32        -8.0313   -0.8417   58.1834 H       1  ZINC000506156755    0.0700
     33 H33        -8.0512    0.6114   59.2111 H       1  ZINC000506156755    0.0600
     34 H34        -8.3366   -0.9914   59.9306 H       1  ZINC000506156755    0.0700
     35 H35       -10.3555    1.5744   57.7141 H       1  ZINC000506156755    0.4000
     36 H36       -11.0840    0.3959   54.4701 H       1  ZINC000506156755    0.1300
     37 H37       -10.9021    1.8589   55.4675 H       1  ZINC000506156755    0.1300
     38 H38        -6.4450   -0.1640   51.6194 H       1  ZINC000506156755    0.1400
     39 H39        -4.4388    1.2517   51.4009 H       1  ZINC000506156755    0.1400
     40 H40        -4.1658    3.2433   52.8090 H       1  ZINC000506156755    0.1400
     41 H41        -5.8951    3.8512   54.4573 H       1  ZINC000506156755    0.1400
     42 H42        -8.8242    0.5183   61.1189 H       1  ZINC000506156755    0.1300
     43 H43        -9.8728    1.5836   63.0744 H       1  ZINC000506156755    0.1300
     44 H44       -12.2785    2.1025   63.0556 H       1  ZINC000506156755    0.1300
     45 H45       -13.6418    1.5566   61.0801 H       1  ZINC000506156755    0.1300
     46 H46       -12.6856   -1.4019   60.7605 H       1  ZINC000506156755    0.1300
     47 H47       -14.1771   -3.3561   60.8829 H       1  ZINC000506156755    0.1300
     48 H48       -15.8968   -3.7041   59.1568 H       1  ZINC000506156755    0.1300
     49 H49       -16.1295   -2.0995   57.3049 H       1  ZINC000506156755    0.1300
     50 H50       -14.6460   -0.1396   57.1785 H       1  ZINC000506156755    0.1300
@<TRIPOS>BOND
     1     1     2    1
     2     1    32    1
     3     1    33    1
     4     1    34    1
     5     2     3    1
     6     2     4    1
     7     2    19    1
     8     4     5   am
     9     4    35    1
    10     5     6    2
    11     5     7    1
    12     7     8    1
    13     7    36    1
    14     7    37    1
    15     8    17   am
    16     8     9   am
    17     9    10    2
    18     9    11    1
    19    11    16   ar
    20    11    12   ar
    21    12    13   ar
    22    12    38    1
    23    13    14   ar
    24    13    39    1
    25    14    15   ar
    26    14    40    1
    27    15    16   ar
    28    15    41    1
    29    16    17    1
    30    17    18    2
    31    19    24   ar
    32    19    20   ar
    33    20    21   ar
    34    20    42    1
    35    21    22   ar
    36    21    43    1
    37    22    23   ar
    38    22    44    1
    39    23    24   ar
    40    23    45    1
    41    24    25    1
    42    25    26    1
    43    26    31   ar
    44    26    27   ar
    45    27    28   ar
    46    27    46    1
    47    28    29   ar
    48    28    47    1
    49    29    30   ar
    50    29    48    1
    51    30    31   ar
    52    30    49    1
    53    31    50    1
@<TRIPOS>SUBSTRUCTURE
     1 ZINC000506156755        1 TEMP              0 ****  ****    0 ROOT


##########                                Name:    ZINC000672622940
##########                DOCK_Rotatable_Bonds:                   7
##########                         Heavy_Atoms:                  30
##########                    Molecular_Weight:             416.523
##########                DOCK_Rotatable_Bonds:                   7
##########                       Formal_Charge:          -0.0100002
##########                     HBond_Acceptors:                   9
##########                        HBond_Donors:                   1
##########                         Heavy_Atoms:                  30
##########                          Grid_Score:          -25.898365
##########                     Grid_vdw_energy:          -24.090395
##########                      Grid_es_energy:           -1.807969
##########           Internal_energy_repulsive:           27.903364

@<TRIPOS>MOLECULE
ZINC000672622940
 62 65 1 0 0
SMALL
USER_CHARGES


@<TRIPOS>ATOM
      1 C1         -9.1681    2.4196   65.1903 C.3     1  ZINC000672622940    0.0800
      2 N2         -9.6083    3.6346   64.5005 N.am    1  ZINC000672622940   -0.6200
      3 C3         -9.8069    4.8745   65.2553 C.3     1  ZINC000672622940    0.0700
      4 C4         -9.8307    3.6118   63.1713 C.2     1  ZINC000672622940    0.5200
      5 O5        -10.1937    4.6181   62.5999 O.2     1  ZINC000672622940   -0.5300
      6 C6         -9.6282    2.3360   62.3953 C.3     1  ZINC000672622940   -0.1000
      7 H7         -8.8506    1.7398   62.8727 H       1  ZINC000672622940    0.1000
      8 C8        -10.9357    1.5419   62.3691 C.3     1  ZINC000672622940   -0.1300
      9 C9        -10.7301    0.2467   61.5812 C.3     1  ZINC000672622940   -0.1100
     10 C10       -10.3085    0.5822   60.1492 C.3     1  ZINC000672622940   -0.1300
     11 C11        -9.0009    1.3763   60.1754 C.3     1  ZINC000672622940    0.1400
     12 H12        -8.2233    0.7801   60.6528 H       1  ZINC000672622940    0.1000
     13 N13        -8.5972    1.6976   58.8042 N.am    1  ZINC000672622940   -0.6900
     14 C14        -7.8419    0.8291   58.1031 C.2     1  ZINC000672622940    0.5100
     15 O15        -7.4976   -0.2198   58.6070 O.2     1  ZINC000672622940   -0.5100
     16 C16        -7.4285    1.1576   56.7050 C.2     1  ZINC000672622940    0.5100
     17 O17        -6.3953    1.7614   56.5038 O.2     1  ZINC000672622940   -0.5200
     18 N18        -8.2033    0.7834   55.6676 N.am    1  ZINC000672622940   -0.5800
     19 C19        -9.4600    0.0572   55.8956 C.3     1  ZINC000672622940    0.0700
     20 C20       -10.5955    0.8021   55.1866 C.3     1  ZINC000672622940   -0.1200
     21 C21       -10.2354    0.9871   53.7107 C.3     1  ZINC000672622940    0.0000
     22 C22       -11.3651    1.6894   53.0025 C.2     1  ZINC000672622940    0.2000
     23 N23       -11.5302    2.9797   52.8987 N.2     1  ZINC000672622940   -0.2800
     24 N24       -12.5985    3.2268   52.2274 N.2     1  ZINC000672622940   -0.2800
     25 C25       -13.1631    2.1032   51.8717 C.2     1  ZINC000672622940    0.1500
     26 C26       -14.3487    1.5361   51.1213 C.3     1  ZINC000672622940   -0.0400
     27 C27       -13.9648    0.0615   50.8609 C.3     1  ZINC000672622940   -0.1300
     28 C28       -12.9635   -0.2112   52.0046 C.3     1  ZINC000672622940    0.1000
     29 N29       -12.3960    1.0980   52.3494 N.pl3   1  ZINC000672622940   -0.4900
     30 C30        -8.9612    1.8270   53.5962 C.3     1  ZINC000672622940   -0.1200
     31 C31        -7.8103    1.0992   54.2876 C.3     1  ZINC000672622940    0.1100
     32 C32        -9.2065    2.6715   60.9634 C.3     1  ZINC000672622940   -0.1100
     33 H33       -10.0389    1.8588   65.5299 H       1  ZINC000672622940    0.0600
     34 H34        -8.5840    1.8044   64.5059 H       1  ZINC000672622940    0.0800
     35 H35        -8.5537    2.6915   66.0487 H       1  ZINC000672622940    0.0700
     36 H36        -8.8760    5.4414   65.2740 H       1  ZINC000672622940    0.0600
     37 H37       -10.5853    5.4697   64.7779 H       1  ZINC000672622940    0.0800
     38 H38       -10.1068    4.6347   66.2754 H       1  ZINC000672622940    0.0700
     39 H39       -11.2361    1.3028   63.3893 H       1  ZINC000672622940    0.0800
     40 H40       -11.7134    2.1382   61.8916 H       1  ZINC000672622940    0.0700
     41 H41        -9.9525   -0.3495   62.0586 H       1  ZINC000672622940    0.0700
     42 H42       -11.6617   -0.3190   61.5625 H       1  ZINC000672622940    0.0700
     43 H43       -10.1620   -0.3405   59.5878 H       1  ZINC000672622940    0.0700
     44 H44       -11.0861    1.1785   59.6718 H       1  ZINC000672622940    0.0700
     45 H45        -8.8734    2.5354   58.4011 H       1  ZINC000672622940    0.4100
     46 H46        -9.3772   -0.9520   55.4923 H       1  ZINC000672622940    0.0700
     47 H47        -9.6659    0.0099   56.9650 H       1  ZINC000672622940    0.1400
     48 H48       -11.5159    0.2236   55.2667 H       1  ZINC000672622940    0.0800
     49 H49       -10.7368    1.7777   55.6517 H       1  ZINC000672622940    0.0800
     50 H50       -10.0698    0.0121   53.2523 H       1  ZINC000672622940    0.0900
     51 H51       -15.2496    1.5933   51.7323 H       1  ZINC000672622940    0.1000
     52 H52       -14.4918    2.0649   50.1789 H       1  ZINC000672622940    0.1000
     53 H53       -14.8360   -0.5884   50.9420 H       1  ZINC000672622940    0.1100
     54 H54       -13.4856   -0.0506   49.8882 H       1  ZINC000672622940    0.0900
     55 H55       -13.4800   -0.6406   52.8631 H       1  ZINC000672622940    0.1000
     56 H56       -12.1754   -0.8824   51.6634 H       1  ZINC000672622940    0.1000
     57 H57        -8.7183    1.9782   52.5444 H       1  ZINC000672622940    0.0800
     58 H58        -9.1179    2.7930   54.0763 H       1  ZINC000672622940    0.0800
     59 H59        -6.9264    1.7371   54.2949 H       1  ZINC000672622940    0.1000
     60 H60        -7.5910    0.1736   53.7554 H       1  ZINC000672622940    0.0800
     61 H61        -9.9842    3.2678   60.4858 H       1  ZINC000672622940    0.0800
     62 H62        -8.2750    3.2373   60.9819 H       1  ZINC000672622940    0.0800
@<TRIPOS>BOND
     1     1     2    1
     2     1    33    1
     3     1    34    1
     4     1    35    1
     5     2     3    1
     6     2     4   am
     7     3    36    1
     8     3    37    1
     9     3    38    1
    10     4     5    2
    11     4     6    1
    12     6     7    1
    13     6    32    1
    14     6     8    1
    15     8     9    1
    16     8    39    1
    17     8    40    1
    18     9    10    1
    19     9    41    1
    20     9    42    1
    21    10    11    1
    22    10    43    1
    23    10    44    1
    24    11    12    1
    25    11    13    1
    26    11    32    1
    27    13    14   am
    28    13    45    1
    29    14    15    2
    30    14    16    1
    31    16    17    2
    32    16    18   am
    33    18    31    1
    34    18    19    1
    35    19    20    1
    36    19    46    1
    37    19    47    1
    38    20    21    1
    39    20    48    1
    40    20    49    1
    41    21    22    1
    42    21    30    1
    43    21    50    1
    44    22    29    1
    45    22    23    2
    46    23    24    1
    47    24    25    2
    48    25    29    1
    49    25    26    1
    50    26    27    1
    51    26    51    1
    52    26    52    1
    53    27    28    1
    54    27    53    1
    55    27    54    1
    56    28    29    1
    57    28    55    1
    58    28    56    1
    59    30    31    1
    60    30    57    1
    61    30    58    1
    62    31    59    1
    63    31    60    1
    64    32    61    1
    65    32    62    1
@<TRIPOS>SUBSTRUCTURE
     1 ZINC000672622940        1 TEMP              0 ****  ****    0 ROOT


##########                                Name:    ZINC000179211660
##########                DOCK_Rotatable_Bonds:                   6
##########                         Heavy_Atoms:                  23
##########                    Molecular_Weight:             385.208
##########                DOCK_Rotatable_Bonds:                   6
##########                       Formal_Charge:        -1.78814e-07
##########                     HBond_Acceptors:                   6
##########                        HBond_Donors:                   1
##########                         Heavy_Atoms:                  23
##########                          Grid_Score:          -25.889528
##########                     Grid_vdw_energy:          -24.680309
##########                      Grid_es_energy:           -1.209220
##########           Internal_energy_repulsive:           15.399411

@<TRIPOS>MOLECULE
ZINC000179211660
 38 39 1 0 0
SMALL
USER_CHARGES


@<TRIPOS>ATOM
      1 C1        -12.9339   -0.0862   60.8688 C.3     1  ZINC000179211660    0.0300
      2 O2        -11.5258   -0.3148   60.7840 O.3     1  ZINC000179211660   -0.2700
      3 C3        -11.1056   -1.2534   59.8954 C.ar    1  ZINC000179211660    0.1500
      4 C4        -12.0295   -1.9415   59.1227 C.ar    1  ZINC000179211660   -0.2200
      5 C5        -11.5996   -2.8948   58.2197 C.ar    1  ZINC000179211660   -0.0700
      6 C6        -10.2502   -3.1635   58.0863 C.ar    1  ZINC000179211660   -0.1700
      7 C7         -9.3272   -2.4792   58.8558 C.ar    1  ZINC000179211660   -0.0700
      8 C8         -9.7513   -1.5208   59.7556 C.ar    1  ZINC000179211660   -0.1500
      9 C9         -8.7449   -0.7751   60.5934 C.3     1  ZINC000179211660    0.1800
     10 N10        -8.5979    0.5894   60.0808 N.am    1  ZINC000179211660   -0.6200
     11 C11        -9.0880    1.7241   60.8672 C.3     1  ZINC000179211660    0.0700
     12 C12        -8.0119    0.8008   58.8857 C.2     1  ZINC000179211660    0.7000
     13 O13        -7.6065   -0.1411   58.2322 O.2     1  ZINC000179211660   -0.5300
     14 N14        -7.8752    2.0561   58.4148 N.am    1  ZINC000179211660   -0.6800
     15 C15        -7.2660    2.2759   57.1724 C.ar    1  ZINC000179211660    0.1900
     16 C16        -5.9755    2.7817   57.1111 C.ar    1  ZINC000179211660   -0.1400
     17 C17        -5.3759    2.9975   55.8828 C.ar    1  ZINC000179211660    0.1500
     18 F18        -4.1192    3.4899   55.8223 F       1  ZINC000179211660   -0.1100
     19 C19        -6.0629    2.7084   54.7152 C.ar    1  ZINC000179211660   -0.1300
     20 Br20       -5.2402    3.0038   53.0382 Br      1  ZINC000179211660   -0.0100
     21 C21        -7.3498    2.2036   54.7738 C.ar    1  ZINC000179211660   -0.0700
     22 C22        -7.9516    1.9821   55.9987 C.ar    1  ZINC000179211660    0.0600
     23 F23        -9.2082    1.4891   56.0552 F       1  ZINC000179211660   -0.1300
     24 H24       -13.1326    0.6847   61.6135 H       1  ZINC000179211660    0.1000
     25 H25       -13.3080    0.2407   59.8987 H       1  ZINC000179211660    0.0500
     26 H26       -13.4351   -1.0096   61.1592 H       1  ZINC000179211660    0.0500
     27 H27       -13.0839   -1.7324   59.2271 H       1  ZINC000179211660    0.1300
     28 H28       -12.3186   -3.4309   57.6180 H       1  ZINC000179211660    0.1200
     29 H29        -9.9162   -3.9093   57.3802 H       1  ZINC000179211660    0.1200
     30 H30        -8.2735   -2.6911   58.7500 H       1  ZINC000179211660    0.1300
     31 H31        -9.0879   -0.7398   61.6274 H       1  ZINC000179211660    0.0900
     32 H32        -7.7833   -1.2862   60.5469 H       1  ZINC000179211660    0.1000
     33 H33        -8.2946    2.0805   61.5242 H       1  ZINC000179211660    0.0600
     34 H34        -9.3920    2.5272   60.1959 H       1  ZINC000179211660    0.0600
     35 H35        -9.9420    1.4089   61.4668 H       1  ZINC000179211660    0.0800
     36 H36        -8.1986    2.8076   58.9360 H       1  ZINC000179211660    0.4100
     37 H37        -5.4395    3.0071   58.0212 H       1  ZINC000179211660    0.1800
     38 H38        -7.8832    1.9790   53.8620 H       1  ZINC000179211660    0.1600
@<TRIPOS>BOND
     1     1     2    1
     2     1    24    1
     3     1    25    1
     4     1    26    1
     5     2     3    1
     6     3     8   ar
     7     3     4   ar
     8     4     5   ar
     9     4    27    1
    10     5     6   ar
    11     5    28    1
    12     6     7   ar
    13     6    29    1
    14     7     8   ar
    15     7    30    1
    16     8     9    1
    17     9    10    1
    18     9    31    1
    19     9    32    1
    20    10    11    1
    21    10    12   am
    22    11    33    1
    23    11    34    1
    24    11    35    1
    25    12    13    2
    26    12    14   am
    27    14    15    1
    28    14    36    1
    29    15    22   ar
    30    15    16   ar
    31    16    17   ar
    32    16    37    1
    33    17    18    1
    34    17    19   ar
    35    19    20    1
    36    19    21   ar
    37    21    22   ar
    38    21    38    1
    39    22    23    1
@<TRIPOS>SUBSTRUCTURE
     1 ZINC000179211660        1 TEMP              0 ****  ****    0 ROOT


##########                                Name:    ZINC000364058410
##########                DOCK_Rotatable_Bonds:                   5
##########                         Heavy_Atoms:                  25
##########                    Molecular_Weight:             358.464
##########                DOCK_Rotatable_Bonds:                   5
##########                       Formal_Charge:           0.0100002
##########                     HBond_Acceptors:                   7
##########                        HBond_Donors:                   0
##########                         Heavy_Atoms:                  25
##########                          Grid_Score:          -25.777504
##########                     Grid_vdw_energy:          -25.185795
##########                      Grid_es_energy:           -0.591709
##########           Internal_energy_repulsive:           99.003113

@<TRIPOS>MOLECULE
ZINC000364058410
 47 50 1 0 0
SMALL
USER_CHARGES


@<TRIPOS>ATOM
      1 C1         -7.0445    2.9199   56.1830 C.3     1  ZINC000364058410   -0.0700
      2 C2         -8.0121    2.2235   57.1050 C.2     1  ZINC000364058410   -0.2500
      3 C3         -7.6984    1.5995   58.2640 C.2     1  ZINC000364058410    0.0800
      4 N4         -8.8402    1.1065   58.7877 N.pl3   1  ZINC000364058410   -0.3600
      5 C5         -8.9605    0.3570   60.0407 C.3     1  ZINC000364058410    0.1300
      6 C6        -10.3010   -0.3844   60.1933 C.3     1  ZINC000364058410    0.1100
      7 N7         -9.6276   -1.5277   59.5472 N.am    1  ZINC000364058410   -0.6500
      8 C8        -10.0477   -2.5922   58.8353 C.2     1  ZINC000364058410    0.5600
      9 O9         -9.2431   -3.3974   58.4168 O.2     1  ZINC000364058410   -0.5000
     10 C10       -11.5169   -2.7817   58.5592 C.3     1  ZINC000364058410    0.1400
     11 H11       -11.7097   -3.8244   58.3062 H       1  ZINC000364058410    0.0900
     12 C12       -12.3268   -2.3966   59.8013 C.3     1  ZINC000364058410   -0.1200
     13 C13       -13.8199   -2.4577   59.4710 C.3     1  ZINC000364058410   -0.1200
     14 C14       -14.1390   -1.4579   58.3570 C.3     1  ZINC000364058410   -0.1400
     15 C15       -13.3497   -1.8325   57.0987 C.3     1  ZINC000364058410    0.1000
     16 N16       -11.9231   -1.9203   57.4405 N.am    1  ZINC000364058410   -0.6000
     17 C17       -11.0058   -1.2201   56.7442 C.2     1  ZINC000364058410    0.5900
     18 O18        -9.8274   -1.3014   57.0372 O.2     1  ZINC000364058410   -0.4900
     19 C19       -11.4275   -0.3606   55.6342 C.2     1  ZINC000364058410   -0.2600
     20 C20       -12.1381    0.8001   55.7562 C.2     1  ZINC000364058410   -0.0600
     21 C21       -12.3991    1.4070   54.5506 C.2     1  ZINC000364058410   -0.1400
     22 C22       -11.9198    0.7673   53.4774 C.2     1  ZINC000364058410   -0.2400
     23 S23       -11.0933   -0.6541   53.9331 S.3     1  ZINC000364058410    0.2100
     24 C24        -8.3093   -1.0372   59.9939 C.3     1  ZINC000364058410    0.0900
     25 N25        -9.8903    1.4385   57.9220 N.2     1  ZINC000364058410   -0.3000
     26 C26        -9.3936    2.1131   56.9168 C.2     1  ZINC000364058410    0.0500
     27 H27        -6.9519    3.9656   56.4761 H       1  ZINC000364058410    0.0600
     28 H28        -6.0696    2.4368   56.2472 H       1  ZINC000364058410    0.0600
     29 H29        -7.4124    2.8609   55.1585 H       1  ZINC000364058410    0.0600
     30 H30        -6.7111    1.5117   58.6929 H       1  ZINC000364058410    0.1700
     31 H31        -8.6794    0.9435   60.9153 H       1  ZINC000364058410    0.1300
     32 H32       -10.5850   -0.5700   61.2291 H       1  ZINC000364058410    0.1100
     33 H33       -11.1092    0.0423   59.5992 H       1  ZINC000364058410    0.0900
     34 H34       -12.1045   -3.0920   60.6106 H       1  ZINC000364058410    0.0800
     35 H35       -12.0632   -1.3844   60.1079 H       1  ZINC000364058410    0.0800
     36 H36       -14.0779   -3.4639   59.1406 H       1  ZINC000364058410    0.0700
     37 H37       -14.3990   -2.2079   60.3600 H       1  ZINC000364058410    0.0800
     38 H38       -15.2065   -1.4852   58.1384 H       1  ZINC000364058410    0.0800
     39 H39       -13.8583   -0.4546   58.6774 H       1  ZINC000364058410    0.0700
     40 H40       -13.6938   -2.7969   56.7251 H       1  ZINC000364058410    0.0800
     41 H41       -13.4963   -1.0690   56.3347 H       1  ZINC000364058410    0.0900
     42 H42       -12.4628    1.2007   56.7052 H       1  ZINC000364058410    0.1500
     43 H43       -12.9510    2.3323   54.4751 H       1  ZINC000364058410    0.1500
     44 H44       -12.0369    1.1075   52.4591 H       1  ZINC000364058410    0.1700
     45 H45        -7.5270   -1.1317   59.2406 H       1  ZINC000364058410    0.0900
     46 H46        -8.0081   -1.4146   60.9712 H       1  ZINC000364058410    0.1100
     47 H47        -9.9527    2.5095   56.0823 H       1  ZINC000364058410    0.1800
@<TRIPOS>BOND
     1     1     2    1
     2     1    27    1
     3     1    28    1
     4     1    29    1
     5     2    26    1
     6     2     3    2
     7     3     4    1
     8     3    30    1
     9     4     5    1
    10     4    25    1
    11     5    24    1
    12     5     6    1
    13     5    31    1
    14     6     7    1
    15     6    32    1
    16     6    33    1
    17     7     8   am
    18     7    24    1
    19     8     9    2
    20     8    10    1
    21    10    11    1
    22    10    16    1
    23    10    12    1
    24    12    13    1
    25    12    34    1
    26    12    35    1
    27    13    14    1
    28    13    36    1
    29    13    37    1
    30    14    15    1
    31    14    38    1
    32    14    39    1
    33    15    16    1
    34    15    40    1
    35    15    41    1
    36    16    17   am
    37    17    18    2
    38    17    19    1
    39    19    23    1
    40    19    20    2
    41    20    21    1
    42    20    42    1
    43    21    22    2
    44    21    43    1
    45    22    23    1
    46    22    44    1
    47    24    45    1
    48    24    46    1
    49    25    26    2
    50    26    47    1
@<TRIPOS>SUBSTRUCTURE
     1 ZINC000364058410        1 TEMP              0 ****  ****    0 ROOT


##########                                Name:    ZINC000291574087
##########                DOCK_Rotatable_Bonds:                   8
##########                         Heavy_Atoms:                  23
##########                    Molecular_Weight:             387.249
##########                DOCK_Rotatable_Bonds:                   8
##########                       Formal_Charge:          -0.0400007
##########                     HBond_Acceptors:                   6
##########                        HBond_Donors:                   2
##########                         Heavy_Atoms:                  23
##########                          Grid_Score:          -25.770557
##########                     Grid_vdw_energy:          -23.413635
##########                      Grid_es_energy:           -2.356923
##########           Internal_energy_repulsive:           26.834429

@<TRIPOS>MOLECULE
ZINC000291574087
 43 44 1 0 0
SMALL
USER_CHARGES


@<TRIPOS>ATOM
      1 C1        -12.2504    1.3273   62.2184 C.3     1  ZINC000291574087    0.0200
      2 O2        -11.2742    2.2691   61.7686 O.3     1  ZINC000291574087   -0.3700
      3 C3        -10.0976    2.3180   62.5782 C.3     1  ZINC000291574087    0.1400
      4 C4         -9.2513    3.5272   62.1753 C.3     1  ZINC000291574087   -0.1500
      5 C5         -9.2858    1.0370   62.3760 C.3     1  ZINC000291574087    0.0900
      6 N6         -8.6527    1.0635   61.0552 N.am    1  ZINC000291574087   -0.6900
      7 C7         -9.1877    0.3606   60.0372 C.2     1  ZINC000291574087    0.5100
      8 O8        -10.1930   -0.2954   60.2152 O.2     1  ZINC000291574087   -0.5100
      9 C9         -8.5432    0.3891   58.6903 C.2     1  ZINC000291574087    0.5100
     10 O10        -7.4784   -0.1666   58.5150 O.2     1  ZINC000291574087   -0.4900
     11 N11        -9.1442    1.0317   57.6693 N.am    1  ZINC000291574087   -0.6400
     12 C12        -8.5408    1.0584   56.4079 C.ar    1  ZINC000291574087    0.1300
     13 C13        -9.0094    0.2327   55.3949 C.ar    1  ZINC000291574087   -0.1000
     14 C14        -8.4118    0.2614   54.1496 C.ar    1  ZINC000291574087   -0.0400
     15 C15        -8.9206   -0.6350   53.0503 C.3     1  ZINC000291574087   -0.1300
     16 C16        -7.3474    1.1119   53.9101 C.ar    1  ZINC000291574087   -0.0900
     17 Br17       -6.5342    1.1478   52.2032 Br      1  ZINC000291574087   -0.0300
     18 C18        -6.8767    1.9369   54.9166 C.ar    1  ZINC000291574087   -0.1000
     19 C19        -7.4731    1.9168   56.1637 C.ar    1  ZINC000291574087    0.0700
     20 F20        -7.0138    2.7220   57.1464 F       1  ZINC000291574087   -0.1300
     21 C21       -10.4963    2.4422   64.0502 C.3     1  ZINC000291574087   -0.1900
     22 C22        -9.8489    3.5635   64.8652 C.3     1  ZINC000291574087   -0.1700
     23 C23       -11.3202    3.6651   64.4582 C.3     1  ZINC000291574087   -0.1600
     24 H24       -13.1123    1.3508   61.5514 H       1  ZINC000291574087    0.0900
     25 H25       -11.8176    0.3269   62.2175 H       1  ZINC000291574087    0.0400
     26 H26       -12.5661    1.5858   63.2291 H       1  ZINC000291574087    0.0500
     27 H27        -9.8297    4.4398   62.3193 H       1  ZINC000291574087    0.0700
     28 H28        -8.3539    3.5646   62.7928 H       1  ZINC000291574087    0.0800
     29 H29        -8.9674    3.4388   61.1267 H       1  ZINC000291574087    0.0700
     30 H30        -8.5173    0.9686   63.1459 H       1  ZINC000291574087    0.0900
     31 H31        -9.9469    0.1732   62.4447 H       1  ZINC000291574087    0.0800
     32 H32        -7.8485    1.5870   60.9132 H       1  ZINC000291574087    0.4200
     33 H33        -9.9952    1.4756   57.8093 H       1  ZINC000291574087    0.4300
     34 H34        -9.8402   -0.4318   55.5804 H       1  ZINC000291574087    0.1600
     35 H35        -9.6971   -0.1159   52.4884 H       1  ZINC000291574087    0.0800
     36 H36        -8.0990   -0.8924   52.3818 H       1  ZINC000291574087    0.0800
     37 H37        -9.3337   -1.5449   53.4854 H       1  ZINC000291574087    0.0800
     38 H38        -6.0452    2.5996   54.7267 H       1  ZINC000291574087    0.1500
     39 H39       -10.7031    1.5023   64.5621 H       1  ZINC000291574087    0.1100
     40 H40        -9.6294    3.3615   65.9137 H       1  ZINC000291574087    0.1000
     41 H41        -9.1389    4.2127   64.3528 H       1  ZINC000291574087    0.1000
     42 H42       -11.5783    4.3811   63.6780 H       1  ZINC000291574087    0.1000
     43 H43       -12.0688    3.5299   65.2389 H       1  ZINC000291574087    0.1000
@<TRIPOS>BOND
     1     1     2    1
     2     1    24    1
     3     1    25    1
     4     1    26    1
     5     2     3    1
     6     3     4    1
     7     3     5    1
     8     3    21    1
     9     4    27    1
    10     4    28    1
    11     4    29    1
    12     5     6    1
    13     5    30    1
    14     5    31    1
    15     6     7   am
    16     6    32    1
    17     7     8    2
    18     7     9    1
    19     9    10    2
    20     9    11   am
    21    11    12    1
    22    11    33    1
    23    12    19   ar
    24    12    13   ar
    25    13    14   ar
    26    13    34    1
    27    14    15    1
    28    14    16   ar
    29    15    35    1
    30    15    36    1
    31    15    37    1
    32    16    17    1
    33    16    18   ar
    34    18    19   ar
    35    18    38    1
    36    19    20    1
    37    21    23    1
    38    21    22    1
    39    21    39    1
    40    22    23    1
    41    22    40    1
    42    22    41    1
    43    23    42    1
    44    23    43    1
@<TRIPOS>SUBSTRUCTURE
     1 ZINC000291574087        1 TEMP              0 ****  ****    0 ROOT


##########                                Name:    ZINC000187810810
##########                DOCK_Rotatable_Bonds:                   7
##########                         Heavy_Atoms:                  27
##########                    Molecular_Weight:             386.414
##########                DOCK_Rotatable_Bonds:                   7
##########                       Formal_Charge:           0.0599998
##########                     HBond_Acceptors:                   8
##########                        HBond_Donors:                   1
##########                         Heavy_Atoms:                  27
##########                          Grid_Score:          -25.719450
##########                     Grid_vdw_energy:          -24.370716
##########                      Grid_es_energy:           -1.348733
##########           Internal_energy_repulsive:          108.209373

@<TRIPOS>MOLECULE
ZINC000187810810
 52 53 1 0 0
SMALL
USER_CHARGES


@<TRIPOS>ATOM
      1 C1         -9.4880   -1.2167   53.1458 C.3     1  ZINC000187810810   -0.1800
      2 C2        -10.0516   -0.1950   54.1355 C.3     1  ZINC000187810810    0.1400
      3 C3         -9.0368    0.0437   55.2554 C.3     1  ZINC000187810810   -0.1800
      4 C4        -10.3267    1.1222   53.4072 C.3     1  ZINC000187810810   -0.1400
      5 O5        -11.2882   -0.7019   54.7028 O.3     1  ZINC000187810810   -0.3600
      6 C6        -11.1820   -1.6603   55.6424 C.2     1  ZINC000187810810    0.6500
      7 O7        -10.7343   -2.7513   55.3495 O.2     1  ZINC000187810810   -0.5600
      8 N8        -11.5723   -1.4097   56.9078 N.am    1  ZINC000187810810   -0.6000
      9 C9        -11.4552   -2.4429   57.9458 C.3     1  ZINC000187810810    0.1100
     10 C10       -12.8201   -2.6241   58.6174 C.3     1  ZINC000187810810   -0.1400
     11 C11       -13.3151   -1.2701   59.1312 C.3     1  ZINC000187810810    0.1800
     12 C12       -14.6623   -1.4529   59.8331 C.3     1  ZINC000187810810   -0.1600
     13 N13       -12.3415   -0.7222   60.0788 N.am    1  ZINC000187810810   -0.7100
     14 C14       -12.4984    0.5272   60.5594 C.2     1  ZINC000187810810    0.5500
     15 O15       -13.4470    1.1998   60.2054 O.2     1  ZINC000187810810   -0.5100
     16 C16       -11.5168    1.0797   61.5170 C.ar    1  ZINC000187810810   -0.0900
     17 C17       -11.8983    2.0784   62.4140 C.ar    1  ZINC000187810810   -0.0900
     18 C18       -10.9774    2.5894   63.3054 C.ar    1  ZINC000187810810   -0.0900
     19 C19        -9.6782    2.1141   63.3110 C.ar    1  ZINC000187810810   -0.0900
     20 C20        -9.2933    1.1242   62.4238 C.ar    1  ZINC000187810810   -0.0800
     21 C21       -10.2057    0.6005   61.5317 C.ar    1  ZINC000187810810   -0.1300
     22 C22        -9.7849   -0.4778   60.5666 C.3     1  ZINC000187810810    0.5200
     23 F23        -8.3915   -0.6013   60.5841 F       1  ZINC000187810810   -0.1800
     24 F24       -10.3656   -1.6935   60.9436 F       1  ZINC000187810810   -0.1600
     25 F25       -10.2070   -0.1395   59.2764 F       1  ZINC000187810810   -0.1600
     26 C26       -13.4799   -0.3053   57.9547 C.3     1  ZINC000187810810   -0.1500
     27 C27       -12.1173   -0.0960   57.2769 C.3     1  ZINC000187810810    0.1300
     28 H28        -9.2919   -2.1551   53.6646 H       1  ZINC000187810810    0.0900
     29 H29       -10.2109   -1.3867   52.3480 H       1  ZINC000187810810    0.0600
     30 H30        -8.5596   -0.8362   52.7199 H       1  ZINC000187810810    0.0700
     31 H31        -8.1085    0.4243   54.8294 H       1  ZINC000187810810    0.0700
     32 H32        -9.4383    0.7717   55.9603 H       1  ZINC000187810810    0.0600
     33 H33        -8.8408   -0.8947   55.7741 H       1  ZINC000187810810    0.0900
     34 H34       -11.0497    0.9522   52.6094 H       1  ZINC000187810810    0.0700
     35 H35       -10.7282    1.8501   54.1122 H       1  ZINC000187810810    0.0700
     36 H36        -9.3983    1.5027   52.9813 H       1  ZINC000187810810    0.0800
     37 H37       -11.1437   -3.3835   57.4916 H       1  ZINC000187810810    0.1000
     38 H38       -10.7206   -2.1326   58.6890 H       1  ZINC000187810810    0.0700
     39 H39       -13.5319   -3.0209   57.8935 H       1  ZINC000187810810    0.0900
     40 H40       -12.7253   -3.3177   59.4528 H       1  ZINC000187810810    0.0900
     41 H41       -14.5448   -2.1391   60.6718 H       1  ZINC000187810810    0.0600
     42 H42       -15.0150   -0.4887   60.1992 H       1  ZINC000187810810    0.0800
     43 H43       -15.3867   -1.8611   59.1284 H       1  ZINC000187810810    0.0700
     44 H44       -11.5838   -1.2585   60.3603 H       1  ZINC000187810810    0.4000
     45 H45       -12.9121    2.4507   62.4102 H       1  ZINC000187810810    0.1400
     46 H46       -11.2713    3.3623   64.0001 H       1  ZINC000187810810    0.1400
     47 H47        -8.9611    2.5176   64.0104 H       1  ZINC000187810810    0.1400
     48 H48        -8.2774    0.7578   62.4331 H       1  ZINC000187810810    0.1500
     49 H49       -14.1855   -0.7240   57.2370 H       1  ZINC000187810810    0.0800
     50 H50       -13.8547    0.6514   58.3185 H       1  ZINC000187810810    0.1000
     51 H51       -11.4392    0.4060   57.9670 H       1  ZINC000187810810    0.0700
     52 H52       -12.2445    0.5104   56.3802 H       1  ZINC000187810810    0.1000
@<TRIPOS>BOND
     1     1     2    1
     2     1    28    1
     3     1    29    1
     4     1    30    1
     5     2     3    1
     6     2     4    1
     7     2     5    1
     8     3    31    1
     9     3    32    1
    10     3    33    1
    11     4    34    1
    12     4    35    1
    13     4    36    1
    14     5     6    1
    15     6     7    2
    16     6     8   am
    17     8    27    1
    18     8     9    1
    19     9    10    1
    20     9    37    1
    21     9    38    1
    22    10    11    1
    23    10    39    1
    24    10    40    1
    25    11    12    1
    26    11    13    1
    27    11    26    1
    28    12    41    1
    29    12    42    1
    30    12    43    1
    31    13    14   am
    32    13    44    1
    33    14    15    2
    34    14    16    1
    35    16    21   ar
    36    16    17   ar
    37    17    18   ar
    38    17    45    1
    39    18    19   ar
    40    18    46    1
    41    19    20   ar
    42    19    47    1
    43    20    21   ar
    44    20    48    1
    45    21    22    1
    46    22    23    1
    47    22    24    1
    48    22    25    1
    49    26    27    1
    50    26    49    1
    51    26    50    1
    52    27    51    1
    53    27    52    1
@<TRIPOS>SUBSTRUCTURE
     1 ZINC000187810810        1 TEMP              0 ****  ****    0 ROOT


##########                                Name:    ZINC000151991096
##########                DOCK_Rotatable_Bonds:                   8
##########                         Heavy_Atoms:                  27
##########                    Molecular_Weight:             364.444
##########                DOCK_Rotatable_Bonds:                   8
##########                       Formal_Charge:          -0.0200004
##########                     HBond_Acceptors:                   5
##########                        HBond_Donors:                   1
##########                         Heavy_Atoms:                  27
##########                          Grid_Score:          -25.668358
##########                     Grid_vdw_energy:          -22.727348
##########                      Grid_es_energy:           -2.941009
##########           Internal_energy_repulsive:           15.561906

@<TRIPOS>MOLECULE
ZINC000151991096
 51 53 1 0 0
SMALL
USER_CHARGES


@<TRIPOS>ATOM
      1 C1         -9.8667    0.7014   53.2044 C.3     1  ZINC000151991096   -0.1500
      2 C2         -8.4488    0.1694   53.4224 C.3     1  ZINC000151991096   -0.1300
      3 C3         -7.6580    1.1609   54.2782 C.3     1  ZINC000151991096    0.1400
      4 H4         -6.6658    0.7568   54.4794 H       1  ZINC000151991096    0.1000
      5 N5         -8.3610    1.3824   55.5442 N.am    1  ZINC000151991096   -0.7200
      6 C6         -7.6613    1.5352   56.6859 C.2     1  ZINC000151991096    0.5600
      7 O7         -6.4465    1.4877   56.6654 O.2     1  ZINC000151991096   -0.5300
      8 C8         -8.3697    1.7602   57.9612 C.ar    1  ZINC000151991096   -0.1700
      9 C9         -9.6896    1.3283   58.1150 C.ar    1  ZINC000151991096   -0.0500
     10 C10       -10.3468    1.5396   59.3064 C.ar    1  ZINC000151991096   -0.1600
     11 C11        -9.6990    2.1816   60.3553 C.ar    1  ZINC000151991096    0.1600
     12 O12       -10.3499    2.3877   61.5281 O.3     1  ZINC000151991096   -0.3000
     13 C13       -10.6009    1.2397   62.3413 C.3     1  ZINC000151991096    0.0900
     14 C14       -10.7958    1.6705   63.7721 C.ar    1  ZINC000151991096   -0.0500
     15 C15        -9.7428    1.6128   64.6610 C.ar    1  ZINC000151991096   -0.1000
     16 C16        -9.9202    2.0080   65.9753 C.ar    1  ZINC000151991096   -0.0900
     17 C17       -11.1533    2.4628   66.4072 C.ar    1  ZINC000151991096   -0.1200
     18 C18       -12.2152    2.5256   65.5287 C.ar    1  ZINC000151991096   -0.0700
     19 C19       -12.0418    2.1344   64.1998 C.ar    1  ZINC000151991096   -0.0200
     20 C20       -13.1396    2.1970   63.2823 C.1     1  ZINC000151991096    0.2400
     21 N21       -14.0104    2.2467   62.5547 N.1     1  ZINC000151991096   -0.4000
     22 C22        -8.3860    2.6128   60.2063 C.ar    1  ZINC000151991096   -0.2200
     23 C23        -7.7201    2.4005   59.0198 C.ar    1  ZINC000151991096   -0.0100
     24 C24        -7.5254    2.4885   53.5293 C.3     1  ZINC000151991096    0.0700
     25 H25        -8.5106    2.9327   53.3871 H       1  ZINC000151991096    0.1000
     26 C26        -6.8548    2.2521   52.1590 C.3     1  ZINC000151991096   -0.1500
     27 C27        -5.9271    3.4907   52.0280 C.3     1  ZINC000151991096   -0.1600
     28 C28        -5.5181    3.7096   53.5064 C.3     1  ZINC000151991096    0.0500
     29 O29        -6.6912    3.3846   54.2728 O.3     1  ZINC000151991096   -0.3700
     30 H30        -9.8193    1.6639   52.6951 H       1  ZINC000151991096    0.0500
     31 H31       -10.4300   -0.0050   52.5948 H       1  ZINC000151991096    0.0500
     32 H32       -10.3608    0.8243   54.1682 H       1  ZINC000151991096    0.0600
     33 H33        -8.4962   -0.7931   53.9319 H       1  ZINC000151991096    0.0700
     34 H34        -7.9546    0.0466   52.4587 H       1  ZINC000151991096    0.0700
     35 H35        -9.3302    1.4192   55.5608 H       1  ZINC000151991096    0.4000
     36 H36       -10.1937    0.8297   57.3004 H       1  ZINC000151991096    0.1300
     37 H37       -11.3672    1.2065   59.4260 H       1  ZINC000151991096    0.1400
     38 H38       -11.4996    0.7339   61.9884 H       1  ZINC000151991096    0.0800
     39 H39        -9.7524    0.5582   62.2794 H       1  ZINC000151991096    0.0800
     40 H40        -8.7778    1.2581   64.3306 H       1  ZINC000151991096    0.1400
     41 H41        -9.0922    1.9608   66.6671 H       1  ZINC000151991096    0.1400
     42 H42       -11.2850    2.7689   67.4345 H       1  ZINC000151991096    0.1400
     43 H43       -13.1775    2.8805   65.8673 H       1  ZINC000151991096    0.1400
     44 H44        -7.8862    3.1116   61.0235 H       1  ZINC000151991096    0.1300
     45 H45        -6.6998    2.7355   58.9049 H       1  ZINC000151991096    0.1400
     46 H46        -6.2728    1.3305   52.1658 H       1  ZINC000151991096    0.0800
     47 H47        -7.5973    2.2374   51.3611 H       1  ZINC000151991096    0.0900
     48 H48        -5.0582    3.2671   51.4091 H       1  ZINC000151991096    0.0800
     49 H49        -6.4726    4.3509   51.6399 H       1  ZINC000151991096    0.0800
     50 H50        -4.6952    3.0466   53.7734 H       1  ZINC000151991096    0.0600
     51 H51        -5.2360    4.7495   53.6710 H       1  ZINC000151991096    0.0900
@<TRIPOS>BOND
     1     1     2    1
     2     1    30    1
     3     1    31    1
     4     1    32    1
     5     2     3    1
     6     2    33    1
     7     2    34    1
     8     3     4    1
     9     3     5    1
    10     3    24    1
    11     5     6   am
    12     5    35    1
    13     6     7    2
    14     6     8    1
    15     8    23   ar
    16     8     9   ar
    17     9    10   ar
    18     9    36    1
    19    10    11   ar
    20    10    37    1
    21    11    12    1
    22    11    22   ar
    23    12    13    1
    24    13    14    1
    25    13    38    1
    26    13    39    1
    27    14    19   ar
    28    14    15   ar
    29    15    16   ar
    30    15    40    1
    31    16    17   ar
    32    16    41    1
    33    17    18   ar
    34    17    42    1
    35    18    19   ar
    36    18    43    1
    37    19    20    1
    38    20    21    3
    39    22    23   ar
    40    22    44    1
    41    23    45    1
    42    24    25    1
    43    24    29    1
    44    24    26    1
    45    26    27    1
    46    26    46    1
    47    26    47    1
    48    27    28    1
    49    27    48    1
    50    27    49    1
    51    28    29    1
    52    28    50    1
    53    28    51    1
@<TRIPOS>SUBSTRUCTURE
     1 ZINC000151991096        1 TEMP              0 ****  ****    0 ROOT


##########                                Name:    ZINC000459459628
##########                DOCK_Rotatable_Bonds:                   8
##########                         Heavy_Atoms:                  27
##########                    Molecular_Weight:             377.366
##########                DOCK_Rotatable_Bonds:                   8
##########                       Formal_Charge:         -0.00999984
##########                     HBond_Acceptors:                   8
##########                        HBond_Donors:                   1
##########                         Heavy_Atoms:                  27
##########                          Grid_Score:          -25.658552
##########                     Grid_vdw_energy:          -25.548140
##########                      Grid_es_energy:           -0.110413
##########           Internal_energy_repulsive:           14.638306

@<TRIPOS>MOLECULE
ZINC000459459628
 45 46 1 0 0
SMALL
USER_CHARGES


@<TRIPOS>ATOM
      1 C1        -12.1666   -3.4274   57.0199 C.3     1  ZINC000459459628   -0.1600
      2 C2        -11.4423   -2.3652   57.8494 C.3     1  ZINC000459459628    0.1600
      3 H3        -10.3660   -2.4669   57.7099 H       1  ZINC000459459628    0.1100
      4 C4        -11.7846   -2.5526   59.3289 C.3     1  ZINC000459459628   -0.0900
      5 C5        -10.9784   -1.5857   60.1573 C.ar    1  ZINC000459459628   -0.0500
      6 C6         -9.6109   -1.7495   60.2744 C.ar    1  ZINC000459459628   -0.1200
      7 C7         -8.8699   -0.8633   61.0342 C.ar    1  ZINC000459459628   -0.0900
      8 C8         -9.4958    0.1873   61.6774 C.ar    1  ZINC000459459628   -0.1600
      9 C9        -10.8657    0.3527   61.5603 C.ar    1  ZINC000459459628    0.1000
     10 F10       -11.4788    1.3796   62.1888 F       1  ZINC000459459628   -0.1400
     11 C11       -11.6059   -0.5322   60.7951 C.ar    1  ZINC000459459628   -0.1500
     12 N12       -11.8674   -1.0324   57.4148 N.am    1  ZINC000459459628   -0.6200
     13 C13       -13.2080   -0.5457   57.7497 C.3     1  ZINC000459459628    0.0700
     14 C14       -11.0252   -0.2540   56.7067 C.2     1  ZINC000459459628    0.7100
     15 O15       -11.3784    0.8516   56.3446 O.2     1  ZINC000459459628   -0.5700
     16 N16        -9.7914   -0.7014   56.4000 N.am    1  ZINC000459459628   -0.6800
     17 C17        -8.9153    0.1082   55.6635 C.ar    1  ZINC000459459628    0.1500
     18 C18        -7.9076    0.8019   56.3080 C.ar    1  ZINC000459459628   -0.0400
     19 C19        -7.0362    1.6075   55.5700 C.ar    1  ZINC000459459628   -0.0300
     20 C20        -5.9906    2.3277   56.2322 C.1     1  ZINC000459459628    0.2600
     21 N21        -5.1611    2.8991   56.7574 N.1     1  ZINC000459459628   -0.4100
     22 C22        -7.1871    1.7083   54.1847 C.ar    1  ZINC000459459628   -0.0500
     23 C23        -8.1942    1.0145   53.5482 C.ar    1  ZINC000459459628   -0.1700
     24 C24        -9.0564    0.2098   54.2789 C.ar    1  ZINC000459459628    0.1100
     25 O25       -10.0468   -0.4716   53.6468 O.3     1  ZINC000459459628   -0.3200
     26 C26        -9.6489   -1.4996   52.7374 C.3     1  ZINC000459459628    0.4100
     27 F27        -9.5459   -2.7146   53.4230 F       1  ZINC000459459628   -0.1900
     28 F28       -10.6025   -1.6173   51.7205 F       1  ZINC000459459628   -0.1900
     29 H29       -13.2429   -3.3258   57.1595 H       1  ZINC000459459628    0.0600
     30 H30       -11.9227   -3.2939   55.9660 H       1  ZINC000459459628    0.0600
     31 H31       -11.8503   -4.4191   57.3433 H       1  ZINC000459459628    0.0700
     32 H32       -12.8472   -2.3645   59.4825 H       1  ZINC000459459628    0.0800
     33 H33       -11.5490   -3.5733   59.6298 H       1  ZINC000459459628    0.0900
     34 H34        -9.1209   -2.5707   59.7723 H       1  ZINC000459459628    0.1300
     35 H35        -7.8016   -0.9926   61.1252 H       1  ZINC000459459628    0.1300
     36 H36        -8.9169    0.8791   62.2713 H       1  ZINC000459459628    0.1300
     37 H37       -12.6742   -0.4039   60.7029 H       1  ZINC000459459628    0.1300
     38 H38       -13.1766   -0.0241   58.7063 H       1  ZINC000459459628    0.0600
     39 H39       -13.5504    0.1389   56.9736 H       1  ZINC000459459628    0.0700
     40 H40       -13.8943   -1.3896   57.8184 H       1  ZINC000459459628    0.0800
     41 H41        -9.5095   -1.5834   56.6889 H       1  ZINC000459459628    0.4100
     42 H42        -7.7945    0.7216   57.3791 H       1  ZINC000459459628    0.1600
     43 H43        -6.5148    2.3302   53.6124 H       1  ZINC000459459628    0.1400
     44 H44        -8.3096    1.0942   52.4773 H       1  ZINC000459459628    0.1500
     45 H45        -8.6827   -1.2451   52.3016 H       1  ZINC000459459628    0.1900
@<TRIPOS>BOND
     1     1     2    1
     2     1    29    1
     3     1    30    1
     4     1    31    1
     5     2     3    1
     6     2     4    1
     7     2    12    1
     8     4     5    1
     9     4    32    1
    10     4    33    1
    11     5    11   ar
    12     5     6   ar
    13     6     7   ar
    14     6    34    1
    15     7     8   ar
    16     7    35    1
    17     8     9   ar
    18     8    36    1
    19     9    10    1
    20     9    11   ar
    21    11    37    1
    22    12    13    1
    23    12    14   am
    24    13    38    1
    25    13    39    1
    26    13    40    1
    27    14    15    2
    28    14    16   am
    29    16    17    1
    30    16    41    1
    31    17    24   ar
    32    17    18   ar
    33    18    19   ar
    34    18    42    1
    35    19    20    1
    36    19    22   ar
    37    20    21    3
    38    22    23   ar
    39    22    43    1
    40    23    24   ar
    41    23    44    1
    42    24    25    1
    43    25    26    1
    44    26    27    1
    45    26    28    1
    46    26    45    1
@<TRIPOS>SUBSTRUCTURE
     1 ZINC000459459628        1 TEMP              0 ****  ****    0 ROOT


##########                                Name:    ZINC000572148596
##########                DOCK_Rotatable_Bonds:                   4
##########                         Heavy_Atoms:                  26
##########                    Molecular_Weight:             371.463
##########                DOCK_Rotatable_Bonds:                   4
##########                       Formal_Charge:          -0.0199999
##########                     HBond_Acceptors:                   8
##########                        HBond_Donors:                   0
##########                         Heavy_Atoms:                  26
##########                          Grid_Score:          -25.650002
##########                     Grid_vdw_energy:          -26.125956
##########                      Grid_es_energy:            0.475954
##########           Internal_energy_repulsive:           10.645279

@<TRIPOS>MOLECULE
ZINC000572148596
 47 50 1 0 0
SMALL
USER_CHARGES


@<TRIPOS>ATOM
      1 C1         -9.7081    3.6289   64.4896 C.3     1  ZINC000572148596   -0.1400
      2 C2        -10.3626    2.2671   64.2486 C.3     1  ZINC000572148596    0.0800
      3 H3        -11.2512    2.1754   64.8731 H       1  ZINC000572148596    0.1200
      4 C4        -10.7535    2.1472   62.7981 C.2     1  ZINC000572148596    0.1800
      5 N5        -11.9582    2.2421   62.3174 N.2     1  ZINC000572148596   -0.3500
      6 O6        -11.9472    2.1010   61.1129 O.3     1  ZINC000572148596    0.0900
      7 C7        -10.6890    1.8950   60.6930 C.2     1  ZINC000572148596    0.2300
      8 C8        -10.2480    1.6792   59.3008 C.ar    1  ZINC000572148596   -0.1200
      9 C9        -11.1819    1.6532   58.2549 C.ar    1  ZINC000572148596   -0.0100
     10 C10       -10.7280    1.4500   56.9787 C.ar    1  ZINC000572148596   -0.1900
     11 C11        -9.3637    1.2765   56.7580 C.ar    1  ZINC000572148596    0.3400
     12 N12        -8.9007    1.0711   55.4675 N.3     1  ZINC000572148596   -0.4700
     13 C13        -9.0093    2.2994   54.6670 C.3     1  ZINC000572148596    0.0300
     14 C14        -8.4338    2.0451   53.2713 C.3     1  ZINC000572148596    0.0900
     15 H15        -8.5639    2.9355   52.6561 H       1  ZINC000572148596    0.1100
     16 C16        -6.9438    1.7161   53.3852 C.3     1  ZINC000572148596   -0.1800
     17 O17        -9.1220    0.9447   52.6706 O.3     1  ZINC000572148596   -0.3700
     18 C18        -9.0365   -0.2682   53.4234 C.3     1  ZINC000572148596    0.0800
     19 H19        -7.9928   -0.5705   53.5091 H       1  ZINC000572148596    0.0700
     20 C20        -9.8301   -1.3670   52.7138 C.3     1  ZINC000572148596   -0.1400
     21 C21        -9.6181   -0.0372   54.8207 C.3     1  ZINC000572148596    0.0300
     22 N22        -8.5016    1.3056   57.7649 N.ar    1  ZINC000572148596   -0.5200
     23 C23        -8.8954    1.5040   59.0059 C.ar    1  ZINC000572148596    0.1900
     24 N24        -9.9209    1.9292   61.7686 N.2     1  ZINC000572148596   -0.4700
     25 C25        -9.3878    1.1723   64.5983 C.2     1  ZINC000572148596    0.0400
     26 N26        -8.8469    0.3659   63.7487 N.2     1  ZINC000572148596   -0.4500
     27 C27        -8.0125   -0.5366   64.2239 C.2     1  ZINC000572148596    0.0400
     28 C28        -7.8399   -0.4887   65.5483 C.2     1  ZINC000572148596   -0.2500
     29 S29        -8.8329    0.8237   66.1775 S.3     1  ZINC000572148596    0.1400
     30 H30        -8.8195    3.7206   63.8651 H       1  ZINC000572148596    0.0800
     31 H31       -10.4132    4.4207   64.2367 H       1  ZINC000572148596    0.0700
     32 H32        -9.4255    3.7156   65.5387 H       1  ZINC000572148596    0.0800
     33 H33       -12.2350    1.7899   58.4512 H       1  ZINC000572148596    0.1500
     34 H34       -11.4216    1.4242   56.1513 H       1  ZINC000572148596    0.1500
     35 H35       -10.0572    2.5869   54.5817 H       1  ZINC000572148596    0.0600
     36 H36        -8.4498    3.0999   55.1511 H       1  ZINC000572148596    0.1000
     37 H37        -6.8145    0.8248   53.9991 H       1  ZINC000572148596    0.0700
     38 H38        -6.5347    1.5351   52.3912 H       1  ZINC000572148596    0.0600
     39 H39        -6.4209    2.5540   53.8464 H       1  ZINC000572148596    0.0700
     40 H40        -9.4173   -1.5280   51.7180 H       1  ZINC000572148596    0.0700
     41 H41        -9.7645   -2.2911   53.2881 H       1  ZINC000572148596    0.0700
     42 H42       -10.8740   -1.0647   52.6298 H       1  ZINC000572148596    0.0600
     43 H43        -9.5031   -0.9424   55.4169 H       1  ZINC000572148596    0.1000
     44 H44       -10.6758    0.2129   54.7378 H       1  ZINC000572148596    0.0600
     45 H45        -8.1667    1.5218   59.8029 H       1  ZINC000572148596    0.1700
     46 H46        -7.5095   -1.2560   63.5948 H       1  ZINC000572148596    0.1800
     47 H47        -7.2015   -1.1375   66.1297 H       1  ZINC000572148596    0.1800
@<TRIPOS>BOND
     1     1     2    1
     2     1    30    1
     3     1    31    1
     4     1    32    1
     5     2     3    1
     6     2     4    1
     7     2    25    1
     8     4    24    1
     9     4     5    2
    10     5     6    1
    11     6     7    1
    12     7     8    1
    13     7    24    2
    14     8    23   ar
    15     8     9   ar
    16     9    10   ar
    17     9    33    1
    18    10    11   ar
    19    10    34    1
    20    11    12    1
    21    11    22   ar
    22    12    21    1
    23    12    13    1
    24    13    14    1
    25    13    35    1
    26    13    36    1
    27    14    15    1
    28    14    16    1
    29    14    17    1
    30    16    37    1
    31    16    38    1
    32    16    39    1
    33    17    18    1
    34    18    19    1
    35    18    20    1
    36    18    21    1
    37    20    40    1
    38    20    41    1
    39    20    42    1
    40    21    43    1
    41    21    44    1
    42    22    23   ar
    43    23    45    1
    44    25    29    1
    45    25    26    2
    46    26    27    1
    47    27    28    2
    48    27    46    1
    49    28    29    1
    50    28    47    1
@<TRIPOS>SUBSTRUCTURE
     1 ZINC000572148596        1 TEMP              0 ****  ****    0 ROOT


##########                                Name:    ZINC000463474628
##########                DOCK_Rotatable_Bonds:                   5
##########                         Heavy_Atoms:                  25
##########                    Molecular_Weight:              407.35
##########                DOCK_Rotatable_Bonds:                   5
##########                       Formal_Charge:           0.0200004
##########                     HBond_Acceptors:                   4
##########                        HBond_Donors:                   0
##########                         Heavy_Atoms:                  25
##########                          Grid_Score:          -25.645367
##########                     Grid_vdw_energy:          -25.660872
##########                      Grid_es_energy:            0.015505
##########           Internal_energy_repulsive:           25.894945

@<TRIPOS>MOLECULE
ZINC000463474628
 52 54 1 0 0
SMALL
USER_CHARGES


@<TRIPOS>ATOM
      1 C1         -6.6000    5.0316   52.6685 C.3     1  ZINC000463474628   -0.1400
      2 C2         -5.3089    4.3719   53.1572 C.3     1  ZINC000463474628   -0.1300
      3 C3         -5.4458    2.8510   53.0627 C.3     1  ZINC000463474628    0.1400
      4 H4         -4.5358    2.3738   53.4264 H       1  ZINC000463474628    0.0800
      5 C5         -5.7065    2.4375   51.5990 C.3     1  ZINC000463474628   -0.1300
      6 C6         -6.7306    1.2807   51.7419 C.3     1  ZINC000463474628   -0.1300
      7 C7         -7.5709    1.7570   52.9529 C.3     1  ZINC000463474628    0.0900
      8 N8         -6.5980    2.4024   53.8583 N.am    1  ZINC000463474628   -0.6100
      9 C9         -6.7448    2.5548   55.1893 C.2     1  ZINC000463474628    0.5300
     10 O10        -5.8776    3.1027   55.8363 O.2     1  ZINC000463474628   -0.5100
     11 C11        -7.9867    2.0444   55.8736 C.3     1  ZINC000463474628   -0.1200
     12 H12        -8.8400    2.1471   55.2031 H       1  ZINC000463474628    0.1000
     13 C13        -8.2376    2.8546   57.1474 C.3     1  ZINC000463474628   -0.1000
     14 C14        -9.5167    2.3587   57.8258 C.3     1  ZINC000463474628   -0.1300
     15 C15        -9.3459    0.8868   58.2149 C.3     1  ZINC000463474628    0.0900
     16 N16        -8.9617    0.1234   57.0198 N.am    1  ZINC000463474628   -0.6000
     17 C17        -9.6630   -0.9650   56.6455 C.2     1  ZINC000463474628    0.5700
     18 O18        -9.3351   -1.5881   55.6546 O.2     1  ZINC000463474628   -0.5200
     19 C19       -10.8308   -1.4008   57.4396 C.ar    1  ZINC000463474628   -0.1200
     20 C20       -10.6609   -2.2774   58.5125 C.ar    1  ZINC000463474628   -0.0800
     21 C21       -11.7545   -2.6806   59.2499 C.ar    1  ZINC000463474628   -0.1000
     22 C22       -13.0191   -2.2177   58.9277 C.ar    1  ZINC000463474628   -0.0700
     23 Br23      -14.5130   -2.7748   59.9442 Br      1  ZINC000463474628   -0.0400
     24 C24       -13.1940   -1.3477   57.8643 C.ar    1  ZINC000463474628   -0.0900
     25 C25       -12.1078   -0.9330   57.1233 C.ar    1  ZINC000463474628   -0.0300
     26 C26       -12.2999    0.0135   55.9664 C.3     1  ZINC000463474628   -0.1300
     27 C27        -7.7989    0.5687   56.2398 C.3     1  ZINC000463474628    0.1200
     28 H28        -6.5822    5.1035   51.5811 H       1  ZINC000463474628    0.0700
     29 H29        -7.4549    4.4309   52.9790 H       1  ZINC000463474628    0.0600
     30 H30        -6.6827    6.0302   53.0974 H       1  ZINC000463474628    0.0300
     31 H31        -4.4754    4.7010   52.5365 H       1  ZINC000463474628    0.0600
     32 H32        -5.1250    4.6566   54.1931 H       1  ZINC000463474628    0.0700
     33 H33        -6.1360    3.2654   51.0350 H       1  ZINC000463474628    0.0800
     34 H34        -4.7887    2.0842   51.1288 H       1  ZINC000463474628    0.0800
     35 H35        -7.3482    1.1930   50.8480 H       1  ZINC000463474628    0.0900
     36 H36        -6.2280    0.3388   51.9614 H       1  ZINC000463474628    0.0800
     37 H37        -8.3260    2.4745   52.6319 H       1  ZINC000463474628    0.0700
     38 H38        -8.0404    0.9064   53.4469 H       1  ZINC000463474628    0.0800
     39 H39        -7.3948    2.7321   57.8276 H       1  ZINC000463474628    0.0800
     40 H40        -8.3474    3.9085   56.8918 H       1  ZINC000463474628    0.0700
     41 H41        -9.7075    2.9517   58.7204 H       1  ZINC000463474628    0.0800
     42 H42       -10.3557    2.4580   57.1372 H       1  ZINC000463474628    0.0700
     43 H43        -8.5669    0.7970   58.9719 H       1  ZINC000463474628    0.0800
     44 H44       -10.2866    0.5013   58.6080 H       1  ZINC000463474628    0.1000
     45 H45        -9.6751   -2.6395   58.7646 H       1  ZINC000463474628    0.1400
     46 H46       -11.6244   -3.3590   60.0800 H       1  ZINC000463474628    0.1400
     47 H47       -14.1829   -0.9903   57.6175 H       1  ZINC000463474628    0.1400
     48 H48       -12.1267    1.0363   56.3011 H       1  ZINC000463474628    0.0700
     49 H49       -11.5941   -0.2338   55.1735 H       1  ZINC000463474628    0.0900
     50 H50       -13.3181   -0.0773   55.5879 H       1  ZINC000463474628    0.0700
     51 H51        -7.7190   -0.0269   55.3304 H       1  ZINC000463474628    0.1000
     52 H52        -6.8934    0.4532   56.8355 H       1  ZINC000463474628    0.0800
@<TRIPOS>BOND
     1     1     2    1
     2     1    28    1
     3     1    29    1
     4     1    30    1
     5     2     3    1
     6     2    31    1
     7     2    32    1
     8     3     4    1
     9     3     8    1
    10     3     5    1
    11     5     6    1
    12     5    33    1
    13     5    34    1
    14     6     7    1
    15     6    35    1
    16     6    36    1
    17     7     8    1
    18     7    37    1
    19     7    38    1
    20     8     9   am
    21     9    10    2
    22     9    11    1
    23    11    12    1
    24    11    27    1
    25    11    13    1
    26    13    14    1
    27    13    39    1
    28    13    40    1
    29    14    15    1
    30    14    41    1
    31    14    42    1
    32    15    16    1
    33    15    43    1
    34    15    44    1
    35    16    17   am
    36    16    27    1
    37    17    18    2
    38    17    19    1
    39    19    25   ar
    40    19    20   ar
    41    20    21   ar
    42    20    45    1
    43    21    22   ar
    44    21    46    1
    45    22    23    1
    46    22    24   ar
    47    24    25   ar
    48    24    47    1
    49    25    26    1
    50    26    48    1
    51    26    49    1
    52    26    50    1
    53    27    51    1
    54    27    52    1
@<TRIPOS>SUBSTRUCTURE
     1 ZINC000463474628        1 TEMP              0 ****  ****    0 ROOT


##########                                Name:    ZINC000518937710
##########                DOCK_Rotatable_Bonds:                   6
##########                         Heavy_Atoms:                  25
##########                    Molecular_Weight:             397.421
##########                DOCK_Rotatable_Bonds:                   6
##########                       Formal_Charge:          -0.0199997
##########                     HBond_Acceptors:                  11
##########                        HBond_Donors:                   0
##########                         Heavy_Atoms:                  25
##########                          Grid_Score:          -25.575750
##########                     Grid_vdw_energy:          -25.509565
##########                      Grid_es_energy:           -0.066184
##########           Internal_energy_repulsive:           16.130089

@<TRIPOS>MOLECULE
ZINC000518937710
 42 44 1 0 0
SMALL
USER_CHARGES


@<TRIPOS>ATOM
      1 C1        -10.7349    2.3243   58.3593 C.3     1  ZINC000518937710   -0.1900
      2 C2         -9.5632    1.3562   58.5347 C.3     1  ZINC000518937710    0.1700
      3 H3         -9.6391    0.5566   57.7978 H       1  ZINC000518937710    0.1100
      4 C4         -8.2458    2.1087   58.3369 C.3     1  ZINC000518937710   -0.6600
      5 S5         -7.6879    1.9107   56.6222 S.o2    1  ZINC000518937710    2.4000
      6 C6         -5.9637    2.4651   56.7228 C.3     1  ZINC000518937710   -0.6600
      7 O7         -7.7005    0.5270   56.2989 O.2     1  ZINC000518937710   -0.9200
      8 O8         -8.4091    2.8211   55.8034 O.2     1  ZINC000518937710   -0.9300
      9 N9         -9.6006    0.7831   59.8825 N.am    1  ZINC000518937710   -0.9600
     10 C10       -10.0258    1.6066   61.0170 C.3     1  ZINC000518937710    0.0800
     11 C11        -9.0861    1.6892   62.2216 C.3     1  ZINC000518937710   -0.1800
     12 C12        -9.2427    2.8924   61.2895 C.3     1  ZINC000518937710   -0.1800
     13 S13        -9.1619   -0.7954   60.1235 S.o2    1  ZINC000518937710    2.6900
     14 O14        -7.8697   -0.9447   59.5514 O.2     1  ZINC000518937710   -0.9400
     15 O15        -9.4478   -1.0881   61.4843 O.2     1  ZINC000518937710   -0.9400
     16 C16       -10.2505   -1.7921   59.1609 C.ar    1  ZINC000518937710   -0.6400
     17 C17        -9.7367   -2.6767   58.2311 C.ar    1  ZINC000518937710   -0.0300
     18 C18       -10.5877   -3.4602   57.4741 C.ar    1  ZINC000518937710   -0.1300
     19 C19       -11.9561   -3.3628   57.6441 C.ar    1  ZINC000518937710   -0.0300
     20 C20       -12.4781   -2.4784   58.5739 C.ar    1  ZINC000518937710    0.0200
     21 C21       -11.6206   -1.6927   59.3402 C.ar    1  ZINC000518937710    0.1900
     22 O22       -12.3704   -0.9132   60.1729 O.3     1  ZINC000518937710   -0.2800
     23 C23       -13.7010   -0.9323   59.6229 C.3     1  ZINC000518937710    0.5700
     24 F24       -14.6558   -0.8864   60.6444 F       1  ZINC000518937710   -0.1200
     25 F25       -13.8813    0.1338   58.7351 F       1  ZINC000518937710   -0.1400
     26 O26       -13.7650   -2.1943   58.9298 O.3     1  ZINC000518937710   -0.2900
     27 H27       -10.6792    3.1035   59.1195 H       1  ZINC000518937710    0.1000
     28 H28       -10.6862    2.7780   57.3695 H       1  ZINC000518937710    0.0800
     29 H29       -11.6739    1.7809   58.4642 H       1  ZINC000518937710    0.0700
     30 H30        -8.3964    3.1670   58.5499 H       1  ZINC000518937710    0.1600
     31 H31        -7.4920    1.7056   59.0131 H       1  ZINC000518937710    0.1400
     32 H32        -5.3988    1.7819   57.3570 H       1  ZINC000518937710    0.1300
     33 H33        -5.5273    2.4781   55.7239 H       1  ZINC000518937710    0.1300
     34 H34        -5.9287    3.4682   57.1477 H       1  ZINC000518937710    0.1300
     35 H35       -11.0980    1.6192   61.2130 H       1  ZINC000518937710    0.1500
     36 H36        -9.5399    1.7560   63.2103 H       1  ZINC000518937710    0.1100
     37 H37        -8.1514    1.1308   62.1698 H       1  ZINC000518937710    0.1000
     38 H38        -8.4111    3.1256   60.6246 H       1  ZINC000518937710    0.1000
     39 H39        -9.7996    3.7509   61.6652 H       1  ZINC000518937710    0.1000
     40 H40        -8.6681   -2.7556   58.0956 H       1  ZINC000518937710    0.1600
     41 H41       -10.1826   -4.1497   56.7482 H       1  ZINC000518937710    0.1600
     42 H42       -12.6186   -3.9762   57.0513 H       1  ZINC000518937710    0.1500
@<TRIPOS>BOND
     1     1     2    1
     2     1    27    1
     3     1    28    1
     4     1    29    1
     5     2     3    1
     6     2     4    1
     7     2     9    1
     8     4     5    1
     9     4    30    1
    10     4    31    1
    11     5     6    1
    12     5     7    2
    13     5     8    2
    14     6    32    1
    15     6    33    1
    16     6    34    1
    17     9    10    1
    18     9    13   am
    19    10    12    1
    20    10    11    1
    21    10    35    1
    22    11    12    1
    23    11    36    1
    24    11    37    1
    25    12    38    1
    26    12    39    1
    27    13    14    2
    28    13    15    2
    29    13    16    1
    30    16    21   ar
    31    16    17   ar
    32    17    18   ar
    33    17    40    1
    34    18    19   ar
    35    18    41    1
    36    19    20   ar
    37    19    42    1
    38    20    26    1
    39    20    21   ar
    40    21    22    1
    41    22    23    1
    42    23    24    1
    43    23    25    1
    44    23    26    1
@<TRIPOS>SUBSTRUCTURE
     1 ZINC000518937710        1 TEMP              0 ****  ****    0 ROOT


##########                                Name:    ZINC000561219098
##########                DOCK_Rotatable_Bonds:                   4
##########                         Heavy_Atoms:                  28
##########                    Molecular_Weight:             423.273
##########                DOCK_Rotatable_Bonds:                   4
##########                       Formal_Charge:          0.00999953
##########                     HBond_Acceptors:                   9
##########                        HBond_Donors:                   1
##########                         Heavy_Atoms:                  28
##########                          Grid_Score:          -25.510729
##########                     Grid_vdw_energy:          -25.088364
##########                      Grid_es_energy:           -0.422365
##########           Internal_energy_repulsive:            9.540782

@<TRIPOS>MOLECULE
ZINC000561219098
 45 48 1 0 0
SMALL
USER_CHARGES


@<TRIPOS>ATOM
      1 C1         -5.4720    1.0280   52.0928 C.3     1  ZINC000561219098    0.0700
      2 N2         -6.6713    1.4463   52.8228 N.pl3   1  ZINC000561219098   -0.4500
      3 C3         -7.9224    1.5613   52.2916 C.2     1  ZINC000561219098   -0.0100
      4 C4         -8.7627    1.9685   53.2615 C.2     1  ZINC000561219098   -0.1700
      5 C5         -8.0005    2.1129   54.4481 C.2     1  ZINC000561219098   -0.1100
      6 C6         -8.5081    2.5425   55.7762 C.2     1  ZINC000561219098    0.1600
      7 N7         -9.5571    3.3102   55.9874 N.2     1  ZINC000561219098   -0.2700
      8 N8         -9.7130    3.4875   57.3677 N.pl3   1  ZINC000561219098   -0.4700
      9 C9         -8.7148    2.7960   57.9961 C.2     1  ZINC000561219098    0.0300
     10 C10        -8.4962    2.7062   59.4490 C.2     1  ZINC000561219098    0.5900
     11 O11        -7.6411    3.3899   59.9787 O.2     1  ZINC000561219098   -0.5000
     12 N12        -9.2435    1.8663   60.1922 N.am    1  ZINC000561219098   -0.6100
     13 C13        -9.0435    1.7592   61.6461 C.3     1  ZINC000561219098    0.0500
     14 C14        -8.8978    0.2762   62.0061 C.3     1  ZINC000561219098    0.0500
     15 O15       -10.0018   -0.4510   61.4619 O.3     1  ZINC000561219098   -0.3700
     16 C16       -10.0779   -0.4179   60.0347 C.3     1  ZINC000561219098    0.1200
     17 H17        -9.1516   -0.8063   59.6116 H       1  ZINC000561219098    0.0900
     18 C18       -11.2361   -1.2642   59.5728 C.ar    1  ZINC000561219098   -0.0500
     19 C19       -12.4218   -1.2587   60.2824 C.ar    1  ZINC000561219098   -0.1000
     20 C20       -13.4862   -2.0357   59.8581 C.ar    1  ZINC000561219098    0.1200
     21 F21       -14.6457   -2.0303   60.5514 F       1  ZINC000561219098   -0.1200
     22 C22       -13.3617   -2.8185   58.7218 C.ar    1  ZINC000561219098   -0.0600
     23 Cl23      -14.6957   -3.7930   58.1881 Cl      1  ZINC000561219098   -0.0300
     24 C24       -12.1743   -2.8230   58.0126 C.ar    1  ZINC000561219098   -0.0700
     25 C25       -11.1136   -2.0421   58.4348 C.ar    1  ZINC000561219098   -0.0300
     26 Cl26       -9.6236   -2.0475   57.5441 Cl      1  ZINC000561219098   -0.0400
     27 C27       -10.2879    1.0337   59.5746 C.3     1  ZINC000561219098    0.0900
     28 C28        -7.9548    2.1940   57.0167 C.2     1  ZINC000561219098   -0.1700
     29 C29        -6.7186    1.7778   54.1433 C.2     1  ZINC000561219098    0.0300
     30 H30        -5.3709   -0.0558   52.1507 H       1  ZINC000561219098    0.0800
     31 H31        -5.5583    1.3297   51.0489 H       1  ZINC000561219098    0.0900
     32 H32        -4.5943    1.4990   52.5356 H       1  ZINC000561219098    0.0900
     33 H33        -8.1932    1.3598   51.2657 H       1  ZINC000561219098    0.1700
     34 H34        -9.8218    2.1512   53.1552 H       1  ZINC000561219098    0.1400
     35 H35       -10.4062    4.0093   57.8013 H       1  ZINC000561219098    0.4400
     36 H36        -8.1399    2.2972   61.9329 H       1  ZINC000561219098    0.1000
     37 H37        -9.9032    2.1807   62.1669 H       1  ZINC000561219098    0.0900
     38 H38        -7.9671   -0.1096   61.5902 H       1  ZINC000561219098    0.0700
     39 H39        -8.8869    0.1642   63.0903 H       1  ZINC000561219098    0.1200
     40 H40       -12.5180   -0.6485   61.1684 H       1  ZINC000561219098    0.1600
     41 H41       -12.0766   -3.4333   57.1269 H       1  ZINC000561219098    0.1600
     42 H42       -11.2732    1.3791   59.8874 H       1  ZINC000561219098    0.0900
     43 H43       -10.2061    1.0901   58.4890 H       1  ZINC000561219098    0.1100
     44 H44        -7.0862    1.5722   57.1756 H       1  ZINC000561219098    0.1600
     45 H45        -5.8824    1.7809   54.8269 H       1  ZINC000561219098    0.1700
@<TRIPOS>BOND
     1     1     2    1
     2     1    30    1
     3     1    31    1
     4     1    32    1
     5     2    29    1
     6     2     3    1
     7     3     4    2
     8     3    33    1
     9     4     5    1
    10     4    34    1
    11     5     6    1
    12     5    29    2
    13     6    28    1
    14     6     7    2
    15     7     8    1
    16     8     9    1
    17     8    35    1
    18     9    10    1
    19     9    28    2
    20    10    11    2
    21    10    12   am
    22    12    27    1
    23    12    13    1
    24    13    14    1
    25    13    36    1
    26    13    37    1
    27    14    15    1
    28    14    38    1
    29    14    39    1
    30    15    16    1
    31    16    17    1
    32    16    18    1
    33    16    27    1
    34    18    25   ar
    35    18    19   ar
    36    19    20   ar
    37    19    40    1
    38    20    21    1
    39    20    22   ar
    40    22    23    1
    41    22    24   ar
    42    24    25   ar
    43    24    41    1
    44    25    26    1
    45    27    42    1
    46    27    43    1
    47    28    44    1
    48    29    45    1
@<TRIPOS>SUBSTRUCTURE
     1 ZINC000561219098        1 TEMP              0 ****  ****    0 ROOT


##########                                Name:    ZINC000011498449
##########                DOCK_Rotatable_Bonds:                   5
##########                         Heavy_Atoms:                  21
##########                    Molecular_Weight:             331.198
##########                DOCK_Rotatable_Bonds:                   5
##########                       Formal_Charge:         1.30385e-07
##########                     HBond_Acceptors:                   7
##########                        HBond_Donors:                   1
##########                         Heavy_Atoms:                  21
##########                          Grid_Score:          -25.458948
##########                     Grid_vdw_energy:          -24.175934
##########                      Grid_es_energy:           -1.283015
##########           Internal_energy_repulsive:           29.993155

@<TRIPOS>MOLECULE
ZINC000011498449
 37 38 1 0 0
SMALL
USER_CHARGES


@<TRIPOS>ATOM
      1 C1        -12.6199   -2.4834   57.2675 C.3     1  ZINC000011498449   -0.1500
      2 C2        -11.3852   -1.7103   56.7998 C.3     1  ZINC000011498449    0.0700
      3 H3        -10.6689   -2.4020   56.3565 H       1  ZINC000011498449    0.0600
      4 C4        -10.7403   -1.0028   57.9970 C.3     1  ZINC000011498449    0.0800
      5 N5         -9.6741   -0.1210   57.4958 N.am    1  ZINC000011498449   -0.6100
      6 C6         -8.4349   -0.1613   58.0241 C.2     1  ZINC000011498449    0.5100
      7 O7         -7.5700    0.5746   57.5983 O.2     1  ZINC000011498449   -0.5300
      8 C8         -8.1241   -1.1206   59.1440 C.3     1  ZINC000011498449    0.1000
      9 N9         -8.2093   -0.4180   60.4267 N.am    1  ZINC000011498449   -0.7200
     10 C10        -9.2614   -0.6293   61.2422 C.2     1  ZINC000011498449    0.5600
     11 O11       -10.1389   -1.4039   60.9140 O.2     1  ZINC000011498449   -0.5100
     12 C12        -9.3482    0.0805   62.5347 C.ar    1  ZINC000011498449   -0.1300
     13 C13        -8.4235   -0.1885   63.5458 C.ar    1  ZINC000011498449   -0.0600
     14 C14        -8.5094    0.4774   64.7499 C.ar    1  ZINC000011498449   -0.1100
     15 C15        -9.5102    1.4123   64.9587 C.ar    1  ZINC000011498449    0.0000
     16 Cl16       -9.6103    2.2465   66.4779 Cl      1  ZINC000011498449   -0.0400
     17 C17       -10.4308    1.6845   63.9609 C.ar    1  ZINC000011498449   -0.1100
     18 C18       -10.3528    1.0284   62.7487 C.ar    1  ZINC000011498449    0.0300
     19 Cl19      -11.5073    1.3704   61.4983 Cl      1  ZINC000011498449   -0.0100
     20 C20       -10.0008    0.8056   56.4003 C.3     1  ZINC000011498449    0.0700
     21 C21       -10.6818    0.0100   55.2809 C.3     1  ZINC000011498449    0.0500
     22 O22       -11.7719   -0.7356   55.8281 O.3     1  ZINC000011498449   -0.3700
     23 H23       -13.0791   -2.9848   56.4155 H       1  ZINC000011498449    0.0700
     24 H24       -12.3246   -3.2251   58.0096 H       1  ZINC000011498449    0.0800
     25 H25       -13.3358   -1.7911   57.7107 H       1  ZINC000011498449    0.0700
     26 H26       -11.4904   -0.4105   58.5211 H       1  ZINC000011498449    0.0800
     27 H27       -10.3160   -1.7426   58.6758 H       1  ZINC000011498449    0.1000
     28 H28        -8.8426   -1.9402   59.1303 H       1  ZINC000011498449    0.1000
     29 H29        -7.1174   -1.5177   59.0134 H       1  ZINC000011498449    0.1000
     30 H30        -7.5085    0.1993   60.6891 H       1  ZINC000011498449    0.4100
     31 H31        -7.6428   -0.9172   63.3850 H       1  ZINC000011498449    0.1500
     32 H32        -7.7947    0.2696   65.5325 H       1  ZINC000011498449    0.1500
     33 H33       -11.2088    2.4143   64.1298 H       1  ZINC000011498449    0.1500
     34 H34       -10.6764    1.5800   56.7636 H       1  ZINC000011498449    0.0900
     35 H35        -9.0868    1.2633   56.0217 H       1  ZINC000011498449    0.1000
     36 H36       -11.0554    0.6968   54.5214 H       1  ZINC000011498449    0.1100
     37 H37        -9.9626   -0.6748   54.8316 H       1  ZINC000011498449    0.0600
@<TRIPOS>BOND
     1     1     2    1
     2     1    23    1
     3     1    24    1
     4     1    25    1
     5     2     3    1
     6     2    22    1
     7     2     4    1
     8     4     5    1
     9     4    26    1
    10     4    27    1
    11     5     6   am
    12     5    20    1
    13     6     7    2
    14     6     8    1
    15     8     9    1
    16     8    28    1
    17     8    29    1
    18     9    10   am
    19     9    30    1
    20    10    11    2
    21    10    12    1
    22    12    18   ar
    23    12    13   ar
    24    13    14   ar
    25    13    31    1
    26    14    15   ar
    27    14    32    1
    28    15    16    1
    29    15    17   ar
    30    17    18   ar
    31    17    33    1
    32    18    19    1
    33    20    21    1
    34    20    34    1
    35    20    35    1
    36    21    22    1
    37    21    36    1
    38    21    37    1
@<TRIPOS>SUBSTRUCTURE
     1 ZINC000011498449        1 TEMP              0 ****  ****    0 ROOT


##########                                Name:    ZINC000375477402
##########                DOCK_Rotatable_Bonds:                   5
##########                         Heavy_Atoms:                  26
##########                    Molecular_Weight:             378.342
##########                DOCK_Rotatable_Bonds:                   5
##########                       Formal_Charge:         -1.2666e-07
##########                     HBond_Acceptors:                   9
##########                        HBond_Donors:                   1
##########                         Heavy_Atoms:                  26
##########                          Grid_Score:          -25.457455
##########                     Grid_vdw_energy:          -25.260796
##########                      Grid_es_energy:           -0.196660
##########           Internal_energy_repulsive:            9.596566

@<TRIPOS>MOLECULE
ZINC000375477402
 45 47 1 0 0
SMALL
USER_CHARGES


@<TRIPOS>ATOM
      1 O1         -7.0212    1.7102   58.4559 O.2     1  ZINC000375477402   -0.5600
      2 C2         -7.9243    1.1894   57.8301 C.2     1  ZINC000375477402    0.7200
      3 N3         -8.1035    1.4907   56.5287 N.am    1  ZINC000375477402   -0.7300
      4 C4         -7.2139    2.4501   55.8697 C.3     1  ZINC000375477402    0.1800
      5 H5         -6.2321    2.4191   56.3421 H       1  ZINC000375477402    0.1500
      6 C6         -7.0813    2.0928   54.4117 C.ar    1  ZINC000375477402   -0.1300
      7 C7         -8.0840    1.3809   53.7807 C.ar    1  ZINC000375477402   -0.0800
      8 C8         -7.9639    1.0522   52.4432 C.ar    1  ZINC000375477402   -0.0900
      9 C9         -6.8408    1.4348   51.7342 C.ar    1  ZINC000375477402   -0.1100
     10 C10        -5.8350    2.1478   52.3631 C.ar    1  ZINC000375477402    0.0800
     11 F11        -4.7369    2.5222   51.6708 F       1  ZINC000375477402   -0.1200
     12 C12        -5.9580    2.4823   53.7030 C.ar    1  ZINC000375477402    0.1000
     13 F13        -4.9775    3.1782   54.3191 F       1  ZINC000375477402   -0.1100
     14 C14        -7.7976    3.8585   55.9985 C.3     1  ZINC000375477402    0.4400
     15 F15        -6.8410    4.7981   55.5995 F       1  ZINC000375477402   -0.1600
     16 F16        -8.9294    3.9706   55.1840 F       1  ZINC000375477402   -0.1700
     17 F17        -8.1560    4.0947   57.3301 F       1  ZINC000375477402   -0.1800
     18 N18        -8.7427    0.3068   58.4363 N.am    1  ZINC000375477402   -0.6300
     19 C19        -8.6601   -0.1132   59.8478 C.3     1  ZINC000375477402    0.1000
     20 C20       -10.0898   -0.5951   60.2047 C.3     1  ZINC000375477402   -0.1200
     21 C21       -10.5290   -1.2639   58.8830 C.3     1  ZINC000375477402   -0.1100
     22 C22        -9.8713   -0.3932   57.8016 C.3     1  ZINC000375477402    0.1400
     23 C23       -10.0105   -2.6952   58.8200 C.3     1  ZINC000375477402   -0.1100
     24 C24       -10.5137   -3.3559   57.5312 C.3     1  ZINC000375477402   -0.1600
     25 C25       -12.0413   -3.2639   57.4857 C.3     1  ZINC000375477402    0.0600
     26 O26       -12.4388   -1.8926   57.5487 O.3     1  ZINC000375477402   -0.3800
     27 C27       -12.0456   -1.2271   58.7521 C.3     1  ZINC000375477402    0.0800
     28 H28        -8.8215    1.0721   56.0284 H       1  ZINC000375477402    0.4000
     29 H29        -8.9621    1.0808   54.3331 H       1  ZINC000375477402    0.1400
     30 H30        -8.7482    0.4956   51.9519 H       1  ZINC000375477402    0.1500
     31 H31        -6.7480    1.1772   50.6895 H       1  ZINC000375477402    0.1500
     32 H32        -7.9461   -0.9292   59.9593 H       1  ZINC000375477402    0.0700
     33 H33        -8.3758    0.7294   60.4780 H       1  ZINC000375477402    0.0700
     34 H34       -10.0663   -1.3184   61.0198 H       1  ZINC000375477402    0.0900
     35 H35       -10.7363    0.2473   60.4501 H       1  ZINC000375477402    0.0800
     36 H36       -10.5926    0.3271   57.4156 H       1  ZINC000375477402    0.0800
     37 H37        -9.5020   -1.0228   56.9921 H       1  ZINC000375477402    0.0700
     38 H38        -8.9206   -2.6884   58.8243 H       1  ZINC000375477402    0.0700
     39 H39       -10.3757   -3.2532   59.6820 H       1  ZINC000375477402    0.0700
     40 H40       -10.0916   -2.8406   56.6685 H       1  ZINC000375477402    0.0700
     41 H41       -10.2109   -4.4029   57.5162 H       1  ZINC000375477402    0.0800
     42 H42       -12.4043   -3.7052   56.5575 H       1  ZINC000375477402    0.1000
     43 H43       -12.4631   -3.8036   58.3336 H       1  ZINC000375477402    0.0500
     44 H44       -12.4960   -1.7290   59.6084 H       1  ZINC000375477402    0.0600
     45 H45       -12.3822   -0.1909   58.7207 H       1  ZINC000375477402    0.1000
@<TRIPOS>BOND
     1     1     2    2
     2     2     3   am
     3     2    18   am
     4     3     4    1
     5     3    28    1
     6     4     5    1
     7     4     6    1
     8     4    14    1
     9     6    12   ar
    10     6     7   ar
    11     7     8   ar
    12     7    29    1
    13     8     9   ar
    14     8    30    1
    15     9    10   ar
    16     9    31    1
    17    10    11    1
    18    10    12   ar
    19    12    13    1
    20    14    15    1
    21    14    16    1
    22    14    17    1
    23    18    22    1
    24    18    19    1
    25    19    20    1
    26    19    32    1
    27    19    33    1
    28    20    21    1
    29    20    34    1
    30    20    35    1
    31    21    27    1
    32    21    22    1
    33    21    23    1
    34    22    36    1
    35    22    37    1
    36    23    24    1
    37    23    38    1
    38    23    39    1
    39    24    25    1
    40    24    40    1
    41    24    41    1
    42    25    26    1
    43    25    42    1
    44    25    43    1
    45    26    27    1
    46    27    44    1
    47    27    45    1
@<TRIPOS>SUBSTRUCTURE
     1 ZINC000375477402        1 TEMP              0 ****  ****    0 ROOT


##########                                Name:    ZINC001574157642
##########                DOCK_Rotatable_Bonds:                   9
##########                         Heavy_Atoms:                  28
##########                    Molecular_Weight:             387.445
##########                DOCK_Rotatable_Bonds:                   9
##########                       Formal_Charge:          -0.0400004
##########                     HBond_Acceptors:                  11
##########                        HBond_Donors:                   4
##########                         Heavy_Atoms:                  28
##########                          Grid_Score:          -25.412292
##########                     Grid_vdw_energy:          -25.460552
##########                      Grid_es_energy:            0.048259
##########           Internal_energy_repulsive:           10.445961

@<TRIPOS>MOLECULE
ZINC001574157642
 53 55 1 0 0
SMALL
USER_CHARGES


@<TRIPOS>ATOM
      1 C1        -10.2572    2.0307   64.4815 C.3     1  ZINC001574157642   -0.1400
      2 C2        -10.4356    2.2358   62.9758 C.3     1  ZINC001574157642   -0.0900
      3 C3        -10.6932    3.7165   62.6898 C.3     1  ZINC001574157642   -0.1500
      4 C4         -9.1672    1.7886   62.2464 C.3     1  ZINC001574157642   -0.1300
      5 C5         -9.5203    1.3744   60.8164 C.3     1  ZINC001574157642    0.1300
      6 H6        -10.2989    2.0318   60.4294 H       1  ZINC001574157642    0.1100
      7 C7        -10.0246   -0.0702   60.8136 C.3     1  ZINC001574157642    0.1100
      8 N8        -11.2035   -0.1742   59.9503 N.pl3   1  ZINC001574157642   -0.7100
      9 C9        -11.0485   -0.3260   58.5780 C.ar    1  ZINC001574157642    0.3700
     10 C10       -10.0654   -1.1783   58.0782 C.ar    1  ZINC001574157642    0.0000
     11 N11        -9.9175   -1.3226   56.7762 N.ar    1  ZINC001574157642   -0.3700
     12 C12       -10.7068   -0.6550   55.9393 C.ar    1  ZINC001574157642    0.0800
     13 C13       -10.5409   -0.8175   54.4736 C.2     1  ZINC001574157642    0.2300
     14 N14        -9.7029   -1.6307   53.8613 N.2     1  ZINC001574157642   -0.2700
     15 N15        -9.8624   -1.4781   52.5917 N.pl3   1  ZINC001574157642   -0.2300
     16 N16       -10.7743   -0.5944   52.3800 N.2     1  ZINC001574157642   -0.0400
     17 N17       -11.2179   -0.1702   53.5144 N.2     1  ZINC001574157642   -0.2600
     18 C18       -11.6895    0.1964   56.4391 C.ar    1  ZINC001574157642    0.1600
     19 N19       -11.8402    0.3364   57.7435 N.ar    1  ZINC001574157642   -0.5000
     20 N20        -8.3291    1.4773   59.9699 N.am    1  ZINC001574157642   -0.7300
     21 C21        -8.2478    2.4455   59.0358 C.2     1  ZINC001574157642    0.5200
     22 O22        -9.1615    3.2305   58.8949 O.2     1  ZINC001574157642   -0.5100
     23 C23        -7.0216    2.5525   58.1662 C.3     1  ZINC001574157642   -0.1300
     24 H24        -6.2103    1.9718   58.6050 H       1  ZINC001574157642    0.1100
     25 C25        -6.5990    4.0220   58.0514 C.3     1  ZINC001574157642   -0.1000
     26 C26        -5.2558    4.0834   57.3199 C.3     1  ZINC001574157642   -0.1400
     27 C27        -5.3160    3.2526   56.0703 C.2     1  ZINC001574157642    0.5200
     28 O28        -4.4759    3.4395   55.2157 O.2     1  ZINC001574157642   -0.5500
     29 N29        -6.2435    2.3201   55.8503 N.am    1  ZINC001574157642   -0.7200
     30 C30        -7.3361    2.0192   56.7679 C.3     1  ZINC001574157642    0.1200
     31 H31        -9.4100    2.6209   64.8307 H       1  ZINC001574157642    0.0400
     32 H32       -11.1608    2.3492   65.0010 H       1  ZINC001574157642    0.0500
     33 H33       -10.0737    0.9757   64.6852 H       1  ZINC001574157642    0.0700
     34 H34       -11.2827    1.6455   62.6265 H       1  ZINC001574157642    0.0700
     35 H35        -9.8460    4.3068   63.0390 H       1  ZINC001574157642    0.0500
     36 H36       -10.8203    3.8627   61.6171 H       1  ZINC001574157642    0.0500
     37 H37       -11.5968    4.0351   63.2094 H       1  ZINC001574157642    0.0500
     38 H38        -8.4536    2.6121   62.2203 H       1  ZINC001574157642    0.0700
     39 H39        -8.7256    0.9416   62.7713 H       1  ZINC001574157642    0.0800
     40 H40        -9.2405   -0.7280   60.4387 H       1  ZINC001574157642    0.0800
     41 H41       -10.2907   -0.3640   61.8291 H       1  ZINC001574157642    0.0900
     42 H42       -12.0925   -0.1371   60.3367 H       1  ZINC001574157642    0.4100
     43 H43        -9.4246   -1.7204   58.7577 H       1  ZINC001574157642    0.1700
     44 H44        -9.3719   -1.9542   51.9034 H       1  ZINC001574157642    0.4800
     45 H45       -12.3305    0.7389   55.7599 H       1  ZINC001574157642    0.1800
     46 H46        -7.5988    0.8487   60.0817 H       1  ZINC001574157642    0.4000
     47 H47        -7.3493    4.5767   57.4880 H       1  ZINC001574157642    0.0800
     48 H48        -6.4945    4.4527   59.0472 H       1  ZINC001574157642    0.0900
     49 H49        -5.0337    5.1176   57.0567 H       1  ZINC001574157642    0.1100
     50 H50        -4.4706    3.7003   57.9718 H       1  ZINC001574157642    0.1000
     51 H51        -6.1869    1.8075   55.0288 H       1  ZINC001574157642    0.4000
     52 H52        -7.4816    0.9399   56.8132 H       1  ZINC001574157642    0.0800
     53 H53        -8.2508    2.4880   56.4050 H       1  ZINC001574157642    0.0700
@<TRIPOS>BOND
     1     1     2    1
     2     1    31    1
     3     1    32    1
     4     1    33    1
     5     2     3    1
     6     2     4    1
     7     2    34    1
     8     3    35    1
     9     3    36    1
    10     3    37    1
    11     4     5    1
    12     4    38    1
    13     4    39    1
    14     5     6    1
    15     5     7    1
    16     5    20    1
    17     7     8    1
    18     7    40    1
    19     7    41    1
    20     8     9    1
    21     8    42    1
    22     9    19   ar
    23     9    10   ar
    24    10    11   ar
    25    10    43    1
    26    11    12   ar
    27    12    13    1
    28    12    18   ar
    29    13    17    1
    30    13    14    2
    31    14    15    1
    32    15    16    1
    33    15    44    1
    34    16    17    2
    35    18    19   ar
    36    18    45    1
    37    20    21   am
    38    20    46    1
    39    21    22    2
    40    21    23    1
    41    23    24    1
    42    23    30    1
    43    23    25    1
    44    25    26    1
    45    25    47    1
    46    25    48    1
    47    26    27    1
    48    26    49    1
    49    26    50    1
    50    27    28    2
    51    27    29   am
    52    29    30    1
    53    29    51    1
    54    30    52    1
    55    30    53    1
@<TRIPOS>SUBSTRUCTURE
     1 ZINC001574157642        1 TEMP              0 ****  ****    0 ROOT


##########                                Name:    ZINC000929592477
##########                DOCK_Rotatable_Bonds:                   7
##########                         Heavy_Atoms:                  28
##########                    Molecular_Weight:             399.517
##########                DOCK_Rotatable_Bonds:                   7
##########                       Formal_Charge:         -8.9407e-08
##########                     HBond_Acceptors:                   8
##########                        HBond_Donors:                   3
##########                         Heavy_Atoms:                  28
##########                          Grid_Score:          -25.398481
##########                     Grid_vdw_energy:          -21.076658
##########                      Grid_es_energy:           -4.321823
##########           Internal_energy_repulsive:          166.308090

@<TRIPOS>MOLECULE
ZINC000929592477
 53 56 1 0 0
SMALL
USER_CHARGES


@<TRIPOS>ATOM
      1 O1        -11.7291    0.8442   58.5733 O.2     1  ZINC000929592477   -0.5700
      2 C2        -12.1645    0.1564   59.4766 C.2     1  ZINC000929592477    0.7100
      3 N3        -13.2144   -0.6594   59.2563 N.am    1  ZINC000929592477   -0.6800
      4 C4        -13.8081   -0.7109   57.9873 C.ar    1  ZINC000929592477    0.1600
      5 C5        -13.3528    0.1217   56.9737 C.ar    1  ZINC000929592477   -0.1300
      6 C6        -13.9374    0.0718   55.7241 C.ar    1  ZINC000929592477   -0.0800
      7 C7        -14.9813   -0.8123   55.4806 C.ar    1  ZINC000929592477   -0.1000
      8 S8        -15.7274   -0.8771   53.8858 S.3     1  ZINC000929592477   -0.1100
      9 C9        -14.9346    0.4983   53.0081 C.3     1  ZINC000929592477   -0.0800
     10 C10       -15.4053    0.5435   51.5332 C.3     1  ZINC000929592477   -0.1200
     11 C11       -15.1578    2.0212   51.1405 C.3     1  ZINC000929592477   -0.1200
     12 C12       -15.5369    2.8176   52.4061 C.3     1  ZINC000929592477   -0.1200
     13 C13       -15.3949    1.8493   53.5937 C.3     1  ZINC000929592477   -0.1000
     14 C14       -15.4362   -1.6457   56.4950 C.ar    1  ZINC000929592477   -0.1200
     15 C15       -14.8475   -1.5986   57.7428 C.ar    1  ZINC000929592477   -0.1000
     16 N16       -11.5938    0.2059   60.6966 N.am    1  ZINC000929592477   -0.7300
     17 C17       -10.4526    1.0927   60.9360 C.3     1  ZINC000929592477    0.1500
     18 H18       -10.4876    1.9530   60.2677 H       1  ZINC000929592477    0.1200
     19 C19        -9.1154    0.3233   60.7707 C.3     1  ZINC000929592477   -0.1400
     20 C20        -8.9696   -0.3487   62.1588 C.3     1  ZINC000929592477    0.1100
     21 N21        -9.4836    0.6474   63.1162 N.pl3   1  ZINC000929592477   -0.6000
     22 C22        -9.1487    0.7261   64.4526 C.2     1  ZINC000929592477    0.4600
     23 C23        -8.3158   -0.2240   65.0197 C.2     1  ZINC000929592477   -0.4000
     24 C24        -8.0000   -0.1078   66.3804 C.2     1  ZINC000929592477    0.5300
     25 O25        -7.2694   -0.9226   66.9213 O.2     1  ZINC000929592477   -0.5500
     26 N26        -8.5188    0.9222   67.0812 N.am    1  ZINC000929592477   -0.6400
     27 C27        -9.3246    1.8183   66.4771 C.2     1  ZINC000929592477    0.4100
     28 N28        -9.6234    1.7271   65.2104 N.2     1  ZINC000929592477   -0.5700
     29 C29       -10.4145    1.5476   62.4102 C.3     1  ZINC000929592477    0.1100
     30 H30       -13.5593   -1.2111   59.9758 H       1  ZINC000929592477    0.4100
     31 H31       -12.5415    0.8089   57.1631 H       1  ZINC000929592477    0.1300
     32 H32       -13.5837    0.7199   54.9360 H       1  ZINC000929592477    0.1300
     33 H33       -13.8496    0.4092   53.0619 H       1  ZINC000929592477    0.1000
     34 H34       -14.8061   -0.1259   50.9159 H       1  ZINC000929592477    0.0700
     35 H35       -16.4641    0.2958   51.4578 H       1  ZINC000929592477    0.0800
     36 H36       -14.1086    2.1789   50.8905 H       1  ZINC000929592477    0.0700
     37 H37       -15.7971    2.3059   50.3048 H       1  ZINC000929592477    0.0700
     38 H38       -14.8610    3.6635   52.5313 H       1  ZINC000929592477    0.0700
     39 H39       -16.5660    3.1690   52.3319 H       1  ZINC000929592477    0.0700
     40 H40       -16.3552    1.7309   54.0957 H       1  ZINC000929592477    0.0700
     41 H41       -14.6503    2.2254   54.2951 H       1  ZINC000929592477    0.0800
     42 H42       -16.2475   -2.3331   56.3062 H       1  ZINC000929592477    0.1300
     43 H43       -15.2008   -2.2466   58.5313 H       1  ZINC000929592477    0.1400
     44 H44       -11.9387   -0.3457   61.4161 H       1  ZINC000929592477    0.4000
     45 H45        -9.1897   -0.4240   59.9807 H       1  ZINC000929592477    0.0900
     46 H46        -8.2906    1.0099   60.5805 H       1  ZINC000929592477    0.0900
     47 H47        -9.5653   -1.2604   62.2033 H       1  ZINC000929592477    0.0700
     48 H48        -7.9223   -0.5685   62.3658 H       1  ZINC000929592477    0.0800
     49 H49        -7.9192   -1.0355   64.4276 H       1  ZINC000929592477    0.1500
     50 H50        -8.3113    1.0180   68.0239 H       1  ZINC000929592477    0.4200
     51 H51        -9.7299    2.6352   67.0557 H       1  ZINC000929592477    0.2100
     52 H52       -10.0568    2.5752   62.4745 H       1  ZINC000929592477    0.0900
     53 H53       -11.4092    1.4709   62.8492 H       1  ZINC000929592477    0.0800
@<TRIPOS>BOND
     1     1     2    2
     2     2     3   am
     3     2    16   am
     4     3     4    1
     5     3    30    1
     6     4    15   ar
     7     4     5   ar
     8     5     6   ar
     9     5    31    1
    10     6     7   ar
    11     6    32    1
    12     7     8    1
    13     7    14   ar
    14     8     9    1
    15     9    13    1
    16     9    10    1
    17     9    33    1
    18    10    11    1
    19    10    34    1
    20    10    35    1
    21    11    12    1
    22    11    36    1
    23    11    37    1
    24    12    13    1
    25    12    38    1
    26    12    39    1
    27    13    40    1
    28    13    41    1
    29    14    15   ar
    30    14    42    1
    31    15    43    1
    32    16    17    1
    33    16    44    1
    34    17    18    1
    35    17    29    1
    36    17    19    1
    37    19    20    1
    38    19    45    1
    39    19    46    1
    40    20    21    1
    41    20    47    1
    42    20    48    1
    43    21    22    1
    44    21    29    1
    45    22    28    1
    46    22    23    2
    47    23    24    1
    48    23    49    1
    49    24    25    2
    50    24    26   am
    51    26    27    1
    52    26    50    1
    53    27    28    2
    54    27    51    1
    55    29    52    1
    56    29    53    1
@<TRIPOS>SUBSTRUCTURE
     1 ZINC000929592477        1 TEMP              0 ****  ****    0 ROOT


##########                                Name:    ZINC000986832075
##########                DOCK_Rotatable_Bonds:                   7
##########                         Heavy_Atoms:                  25
##########                    Molecular_Weight:             347.433
##########                DOCK_Rotatable_Bonds:                   7
##########                       Formal_Charge:          -0.0200006
##########                     HBond_Acceptors:                   6
##########                        HBond_Donors:                   1
##########                         Heavy_Atoms:                  25
##########                          Grid_Score:          -25.383158
##########                     Grid_vdw_energy:          -25.473450
##########                      Grid_es_energy:            0.090291
##########           Internal_energy_repulsive:           38.509506

@<TRIPOS>MOLECULE
ZINC000986832075
 51 53 1 0 0
SMALL
USER_CHARGES


@<TRIPOS>ATOM
      1 C1        -10.1976    2.7431   52.2589 C.3     1  ZINC000986832075   -0.1700
      2 C2         -9.3901    1.6114   52.8977 C.3     1  ZINC000986832075    0.1500
      3 H3         -9.2999    0.7860   52.1917 H       1  ZINC000986832075    0.0900
      4 N4         -8.0550    2.1020   53.2486 N.am    1  ZINC000986832075   -0.7200
      5 C5         -7.0580    2.0484   52.3434 C.2     1  ZINC000986832075    0.5600
      6 O6         -7.2667    1.5944   51.2356 O.2     1  ZINC000986832075   -0.5100
      7 C7         -5.7088    2.5424   52.6985 C.ar    1  ZINC000986832075   -0.1300
      8 C8         -4.5960    2.2212   51.9145 C.ar    1  ZINC000986832075   -0.1100
      9 C9         -3.3554    2.7034   52.2823 C.ar    1  ZINC000986832075    0.0900
     10 N10        -3.2106    3.4558   53.3551 N.ar    1  ZINC000986832075   -0.4400
     11 C11        -4.2298    3.7836   54.1230 C.ar    1  ZINC000986832075    0.0700
     12 C12        -5.5111    3.3496   53.8262 C.ar    1  ZINC000986832075    0.1100
     13 F13        -6.5515    3.6895   54.6180 F       1  ZINC000986832075   -0.1000
     14 C14       -10.1034    1.1260   54.1613 C.3     1  ZINC000986832075   -0.1000
     15 C15       -10.1840   -0.4021   54.1461 C.3     1  ZINC000986832075   -0.1300
     16 C16       -10.9291   -0.8827   55.3954 C.3     1  ZINC000986832075    0.1100
     17 N17       -10.2688   -0.3250   56.5835 N.am    1  ZINC000986832075   -0.6100
     18 C18        -9.8631   -1.1303   57.5852 C.2     1  ZINC000986832075    0.5200
     19 O19       -10.0419   -2.3275   57.5111 O.2     1  ZINC000986832075   -0.5300
     20 C20        -9.1873   -0.5430   58.7974 C.3     1  ZINC000986832075   -0.0800
     21 H21        -8.4179    0.1605   58.4793 H       1  ZINC000986832075    0.0900
     22 C22        -8.5456   -1.6644   59.6171 C.3     1  ZINC000986832075   -0.1400
     23 C23       -10.2228    0.1872   59.6551 C.3     1  ZINC000986832075   -0.1400
     24 C24       -10.4604   -0.3354   61.0734 C.3     1  ZINC000986832075   -0.1800
     25 C25        -9.7102    0.9807   60.8586 C.3     1  ZINC000986832075   -0.1700
     26 C26       -10.0589    1.1273   56.6587 C.3     1  ZINC000986832075    0.1000
     27 C27        -9.3235    1.5852   55.3953 C.3     1  ZINC000986832075   -0.1300
     28 H28        -9.6895    3.0888   51.3587 H       1  ZINC000986832075    0.0600
     29 H29       -11.1910    2.3780   51.9979 H       1  ZINC000986832075    0.0700
     30 H30       -10.2879    3.5685   52.9650 H       1  ZINC000986832075    0.0600
     31 H31        -7.8886    2.4655   54.1325 H       1  ZINC000986832075    0.4000
     32 H32        -4.7054    1.6049   51.0344 H       1  ZINC000986832075    0.1500
     33 H33        -2.4909    2.4602   51.6824 H       1  ZINC000986832075    0.1700
     34 H34        -4.0645    4.4021   54.9928 H       1  ZINC000986832075    0.1800
     35 H35       -11.1103    1.5422   54.1925 H       1  ZINC000986832075    0.0800
     36 H36       -10.7192   -0.7295   53.2548 H       1  ZINC000986832075    0.0700
     37 H37        -9.1770   -0.8195   54.1400 H       1  ZINC000986832075    0.0800
     38 H38       -11.9634   -0.5410   55.3580 H       1  ZINC000986832075    0.0700
     39 H39       -10.9031   -1.9715   55.4402 H       1  ZINC000986832075    0.0900
     40 H40        -9.2991   -2.4136   59.8599 H       1  ZINC000986832075    0.0600
     41 H41        -7.7470   -2.1270   59.0372 H       1  ZINC000986832075    0.0600
     42 H42        -8.1338   -1.2514   60.5379 H       1  ZINC000986832075    0.0700
     43 H43       -11.0809    0.5886   59.1159 H       1  ZINC000986832075    0.1100
     44 H44       -11.4750   -0.2780   61.4675 H       1  ZINC000986832075    0.1000
     45 H45        -9.8790   -1.1994   61.3954 H       1  ZINC000986832075    0.0900
     46 H46        -8.6354    0.9826   61.0394 H       1  ZINC000986832075    0.0900
     47 H47       -10.2314    1.9040   61.1115 H       1  ZINC000986832075    0.1000
     48 H48       -11.0222    1.6329   56.7243 H       1  ZINC000986832075    0.0700
     49 H49        -9.4586    1.3647   57.5372 H       1  ZINC000986832075    0.0900
     50 H50        -8.3247    1.1492   55.3775 H       1  ZINC000986832075    0.0800
     51 H51        -9.2464    2.6725   55.3932 H       1  ZINC000986832075    0.0800
@<TRIPOS>BOND
     1     1     2    1
     2     1    28    1
     3     1    29    1
     4     1    30    1
     5     2     3    1
     6     2     4    1
     7     2    14    1
     8     4     5   am
     9     4    31    1
    10     5     6    2
    11     5     7    1
    12     7    12   ar
    13     7     8   ar
    14     8     9   ar
    15     8    32    1
    16     9    10   ar
    17     9    33    1
    18    10    11   ar
    19    11    12   ar
    20    11    34    1
    21    12    13    1
    22    14    27    1
    23    14    15    1
    24    14    35    1
    25    15    16    1
    26    15    36    1
    27    15    37    1
    28    16    17    1
    29    16    38    1
    30    16    39    1
    31    17    18   am
    32    17    26    1
    33    18    19    2
    34    18    20    1
    35    20    21    1
    36    20    22    1
    37    20    23    1
    38    22    40    1
    39    22    41    1
    40    22    42    1
    41    23    25    1
    42    23    24    1
    43    23    43    1
    44    24    25    1
    45    24    44    1
    46    24    45    1
    47    25    46    1
    48    25    47    1
    49    26    27    1
    50    26    48    1
    51    26    49    1
    52    27    50    1
    53    27    51    1
@<TRIPOS>SUBSTRUCTURE
     1 ZINC000986832075        1 TEMP              0 ****  ****    0 ROOT


##########                                Name:    ZINC000486710336
##########                DOCK_Rotatable_Bonds:                   6
##########                         Heavy_Atoms:                  31
##########                    Molecular_Weight:             420.555
##########                DOCK_Rotatable_Bonds:                   6
##########                       Formal_Charge:         1.49012e-07
##########                     HBond_Acceptors:                   6
##########                        HBond_Donors:                   1
##########                         Heavy_Atoms:                  31
##########                          Grid_Score:          -25.381617
##########                     Grid_vdw_energy:          -25.245022
##########                      Grid_es_energy:           -0.136595
##########           Internal_energy_repulsive:           92.639481

@<TRIPOS>MOLECULE
ZINC000486710336
 63 67 1 0 0
SMALL
USER_CHARGES


@<TRIPOS>ATOM
      1 C1          0.1248    3.5192   54.5330 C.3     1  ZINC000486710336    0.1000
      2 N2         -0.6084    3.4141   55.7969 N.pl3   1  ZINC000486710336   -0.3900
      3 N3         -0.0432    3.3742   57.0779 N.2     1  ZINC000486710336   -0.2800
      4 C4         -1.0105    3.2787   57.9539 C.2     1  ZINC000486710336    0.1000
      5 C5         -0.8406    3.2075   59.4497 C.3     1  ZINC000486710336   -0.0100
      6 C6         -1.9136    2.2811   60.0736 C.3     1  ZINC000486710336   -0.1200
      7 C7         -1.2569    1.8475   61.4077 C.3     1  ZINC000486710336   -0.1200
      8 C8          0.2338    1.6665   61.0543 C.3     1  ZINC000486710336   -0.1200
      9 C9          0.4985    2.5313   59.8093 C.3     1  ZINC000486710336   -0.1100
     10 C10        -2.2273    3.2539   57.2683 C.2     1  ZINC000486710336   -0.2600
     11 C11        -1.9579    3.3437   55.9360 C.2     1  ZINC000486710336    0.3000
     12 N12        -2.8937    3.3536   54.9055 N.am    1  ZINC000486710336   -0.6200
     13 C13        -4.2018    3.1831   55.1814 C.2     1  ZINC000486710336    0.5100
     14 O14        -4.5639    3.0193   56.3285 O.2     1  ZINC000486710336   -0.4800
     15 C15        -5.2056    3.1956   54.0763 C.2     1  ZINC000486710336    0.5300
     16 O16        -4.8356    3.2014   52.9204 O.2     1  ZINC000486710336   -0.5100
     17 N17        -6.5227    3.2004   54.3622 N.am    1  ZINC000486710336   -0.5800
     18 C18        -7.1169    3.1992   55.7112 C.3     1  ZINC000486710336    0.1000
     19 C19        -8.6511    3.1690   55.5334 C.3     1  ZINC000486710336   -0.0600
     20 H20        -9.0655    4.1762   55.5791 H       1  ZINC000486710336    0.1000
     21 C21        -9.2919    2.2822   56.5698 C.ar    1  ZINC000486710336   -0.0700
     22 C22        -8.6069    1.1865   57.0609 C.ar    1  ZINC000486710336   -0.1100
     23 C23        -9.1947    0.3731   58.0115 C.ar    1  ZINC000486710336   -0.1200
     24 C24       -10.4674    0.6556   58.4713 C.ar    1  ZINC000486710336   -0.1200
     25 C25       -11.1521    1.7517   57.9809 C.ar    1  ZINC000486710336   -0.1200
     26 C26       -10.5626    2.5676   57.0334 C.ar    1  ZINC000486710336   -0.1100
     27 C27        -8.8178    2.5666   54.1046 C.3     1  ZINC000486710336   -0.0800
     28 H28        -9.7702    2.8297   53.6443 H       1  ZINC000486710336    0.1100
     29 C29        -8.6355    1.0538   54.2443 C.3     1  ZINC000486710336   -0.1100
     30 C30        -8.3661    0.4152   52.8839 C.3     1  ZINC000486710336   -0.1200
     31 C31        -7.0619    0.9906   52.3214 C.3     1  ZINC000486710336   -0.1100
     32 C32        -7.2514    2.4914   52.1011 C.3     1  ZINC000486710336   -0.1400
     33 C33        -7.6162    3.2141   53.3871 C.3     1  ZINC000486710336    0.1400
     34 H34        -7.8446    4.2530   53.1489 H       1  ZINC000486710336    0.0800
     35 H35         0.2590    4.5703   54.2772 H       1  ZINC000486710336    0.0800
     36 H36         1.0997    3.0433   54.6377 H       1  ZINC000486710336    0.1000
     37 H37        -0.4391    3.0224   53.7435 H       1  ZINC000486710336    0.0800
     38 H38        -0.8938    4.2047   59.8866 H       1  ZINC000486710336    0.0900
     39 H39        -2.8374    2.8295   60.2581 H       1  ZINC000486710336    0.0700
     40 H40        -2.0970    1.4172   59.4347 H       1  ZINC000486710336    0.0800
     41 H41        -1.3784    2.6241   62.1629 H       1  ZINC000486710336    0.0700
     42 H42        -1.6837    0.9065   61.7548 H       1  ZINC000486710336    0.0700
     43 H43         0.8574    2.0034   61.8824 H       1  ZINC000486710336    0.0600
     44 H44         0.4405    0.6196   60.8325 H       1  ZINC000486710336    0.0600
     45 H45         0.8337    1.9038   58.9834 H       1  ZINC000486710336    0.0700
     46 H46         1.2506    3.2877   60.0332 H       1  ZINC000486710336    0.0700
     47 H47        -3.2077    3.1806   57.7153 H       1  ZINC000486710336    0.1700
     48 H48        -2.6042    3.4834   53.9888 H       1  ZINC000486710336    0.4200
     49 H49        -6.7896    2.3161   56.2601 H       1  ZINC000486710336    0.0900
     50 H50        -6.8231    4.1019   56.2468 H       1  ZINC000486710336    0.0800
     51 H51        -7.6126    0.9660   56.7016 H       1  ZINC000486710336    0.1200
     52 H52        -8.6597   -0.4832   58.3946 H       1  ZINC000486710336    0.1200
     53 H53       -10.9269    0.0196   59.2136 H       1  ZINC000486710336    0.1200
     54 H54       -12.1465    1.9721   58.3399 H       1  ZINC000486710336    0.1200
     55 H55       -11.0975    3.4240   56.6502 H       1  ZINC000486710336    0.1200
     56 H56        -7.7944    0.8533   54.9080 H       1  ZINC000486710336    0.0700
     57 H57        -9.5401    0.6211   54.6714 H       1  ZINC000486710336    0.0700
     58 H58        -8.2696   -0.6644   52.9994 H       1  ZINC000486710336    0.0600
     59 H59        -9.1883    0.6407   52.2047 H       1  ZINC000486710336    0.0600
     60 H60        -6.2511    0.8233   53.0303 H       1  ZINC000486710336    0.0500
     61 H61        -6.8265    0.5074   51.3732 H       1  ZINC000486710336    0.0600
     62 H62        -6.3274    2.9139   51.7066 H       1  ZINC000486710336    0.1000
     63 H63        -8.0518    2.6480   51.3779 H       1  ZINC000486710336    0.0700
@<TRIPOS>BOND
     1     1     2    1
     2     1    35    1
     3     1    36    1
     4     1    37    1
     5     2    11    1
     6     2     3    1
     7     3     4    2
     8     4     5    1
     9     4    10    1
    10     5     9    1
    11     5     6    1
    12     5    38    1
    13     6     7    1
    14     6    39    1
    15     6    40    1
    16     7     8    1
    17     7    41    1
    18     7    42    1
    19     8     9    1
    20     8    43    1
    21     8    44    1
    22     9    45    1
    23     9    46    1
    24    10    11    2
    25    10    47    1
    26    11    12    1
    27    12    13   am
    28    12    48    1
    29    13    14    2
    30    13    15    1
    31    15    16    2
    32    15    17   am
    33    17    33    1
    34    17    18    1
    35    18    19    1
    36    18    49    1
    37    18    50    1
    38    19    20    1
    39    19    21    1
    40    19    27    1
    41    21    26   ar
    42    21    22   ar
    43    22    23   ar
    44    22    51    1
    45    23    24   ar
    46    23    52    1
    47    24    25   ar
    48    24    53    1
    49    25    26   ar
    50    25    54    1
    51    26    55    1
    52    27    28    1
    53    27    33    1
    54    27    29    1
    55    29    30    1
    56    29    56    1
    57    29    57    1
    58    30    31    1
    59    30    58    1
    60    30    59    1
    61    31    32    1
    62    31    60    1
    63    31    61    1
    64    32    33    1
    65    32    62    1
    66    32    63    1
    67    33    34    1
@<TRIPOS>SUBSTRUCTURE
     1 ZINC000486710336        1 TEMP              0 ****  ****    0 ROOT


##########                                Name:    ZINC000437443367
##########                DOCK_Rotatable_Bonds:                   8
##########                         Heavy_Atoms:                  24
##########                    Molecular_Weight:             334.434
##########                DOCK_Rotatable_Bonds:                   8
##########                       Formal_Charge:          -0.0500003
##########                     HBond_Acceptors:                   5
##########                        HBond_Donors:                   1
##########                         Heavy_Atoms:                  24
##########                          Grid_Score:          -25.362759
##########                     Grid_vdw_energy:          -25.685740
##########                      Grid_es_energy:            0.322981
##########           Internal_energy_repulsive:           25.692327

@<TRIPOS>MOLECULE
ZINC000437443367
 51 52 1 0 0
SMALL
USER_CHARGES


@<TRIPOS>ATOM
      1 C1         -8.4050   -0.5221   65.9866 C.3     1  ZINC000437443367   -0.1200
      2 C2         -8.8810    0.4782   64.9649 C.ar    1  ZINC000437443367   -0.1000
      3 C3         -8.5568    0.3116   63.6333 C.ar    1  ZINC000437443367   -0.1200
      4 C4         -8.9959    1.2341   62.6917 C.ar    1  ZINC000437443367    0.1400
      5 N5         -8.6693    1.0672   61.3426 N.am    1  ZINC000437443367   -0.6400
      6 C6         -9.0867   -0.0290   60.6789 C.2     1  ZINC000437443367    0.5000
      7 O7         -9.7462   -0.8714   61.2523 O.2     1  ZINC000437443367   -0.4800
      8 C8         -8.7378   -0.2073   59.2377 C.2     1  ZINC000437443367    0.5100
      9 O9         -7.6424   -0.6267   58.9260 O.2     1  ZINC000437443367   -0.5200
     10 N10        -9.6394    0.0976   58.2834 N.am    1  ZINC000437443367   -0.5700
     11 C11       -10.9616    0.6038   58.6598 C.3     1  ZINC000437443367    0.0900
     12 C12       -11.8914   -0.5733   58.9616 C.3     1  ZINC000437443367   -0.1200
     13 C13       -12.9228   -0.1526   60.0104 C.3     1  ZINC000437443367   -0.0900
     14 C14       -13.6715    1.0885   59.5203 C.3     1  ZINC000437443367   -0.1400
     15 C15       -13.9176   -1.2934   60.2337 C.3     1  ZINC000437443367   -0.1500
     16 C16        -9.2970   -0.0773   56.8698 C.3     1  ZINC000437443367    0.1300
     17 C17       -10.2439   -1.1077   56.2204 C.3     1  ZINC000437443367   -0.1300
     18 C18       -11.3521   -0.2457   55.5661 C.3     1  ZINC000437443367   -0.1300
     19 C19       -10.5631    0.9731   55.0265 C.3     1  ZINC000437443367   -0.1200
     20 C20        -9.5001    1.2457   56.1107 C.3     1  ZINC000437443367   -0.1400
     21 C21        -9.7603    2.3223   63.0928 C.ar    1  ZINC000437443367   -0.1100
     22 C22       -10.0822    2.4850   64.4260 C.ar    1  ZINC000437443367   -0.1300
     23 C23        -9.6482    1.5611   65.3618 C.ar    1  ZINC000437443367    0.0800
     24 F24        -9.9641    1.7221   66.6654 F       1  ZINC000437443367   -0.1400
     25 H25        -9.1446   -1.3161   66.0897 H       1  ZINC000437443367    0.0800
     26 H26        -7.4562   -0.9493   65.6621 H       1  ZINC000437443367    0.0700
     27 H27        -8.2700   -0.0245   66.9469 H       1  ZINC000437443367    0.0700
     28 H28        -7.9621   -0.5351   63.3236 H       1  ZINC000437443367    0.1400
     29 H29        -8.1424    1.7404   60.8843 H       1  ZINC000437443367    0.4200
     30 H30       -10.8714    1.2320   59.5458 H       1  ZINC000437443367    0.0900
     31 H31       -11.3733    1.1906   57.8386 H       1  ZINC000437443367    0.1000
     32 H32       -12.4041   -0.8748   58.0482 H       1  ZINC000437443367    0.0700
     33 H33       -11.3061   -1.4101   59.3428 H       1  ZINC000437443367    0.0600
     34 H34       -12.4154    0.0758   60.9477 H       1  ZINC000437443367    0.0600
     35 H35       -14.1788    0.8600   58.5830 H       1  ZINC000437443367    0.0600
     36 H36       -14.4063    1.3882   60.2675 H       1  ZINC000437443367    0.0400
     37 H37       -12.9628    1.9011   59.3612 H       1  ZINC000437443367    0.0600
     38 H38       -13.3842   -2.1775   60.5829 H       1  ZINC000437443367    0.0500
     39 H39       -14.6524   -0.9937   60.9809 H       1  ZINC000437443367    0.0500
     40 H40       -14.4249   -1.5217   59.2965 H       1  ZINC000437443367    0.0500
     41 H41        -8.2627   -0.4077   56.7744 H       1  ZINC000437443367    0.1000
     42 H42        -9.7155   -1.6878   55.4640 H       1  ZINC000437443367    0.0800
     43 H43       -10.6697   -1.7652   56.9783 H       1  ZINC000437443367    0.0700
     44 H44       -11.8316   -0.7870   54.7506 H       1  ZINC000437443367    0.0700
     45 H45       -12.0866    0.0673   56.3081 H       1  ZINC000437443367    0.0700
     46 H46       -10.0861    0.7291   54.0773 H       1  ZINC000437443367    0.0700
     47 H47       -11.2219    1.8342   54.9132 H       1  ZINC000437443367    0.0700
     48 H48        -9.8532    2.0179   56.7941 H       1  ZINC000437443367    0.0800
     49 H49        -8.5643    1.5570   55.6462 H       1  ZINC000437443367    0.0700
     50 H50       -10.1025    3.0408   62.3628 H       1  ZINC000437443367    0.1600
     51 H51       -10.6766    3.3309   64.7383 H       1  ZINC000437443367    0.1400
@<TRIPOS>BOND
     1     1     2    1
     2     1    25    1
     3     1    26    1
     4     1    27    1
     5     2    23   ar
     6     2     3   ar
     7     3     4   ar
     8     3    28    1
     9     4     5    1
    10     4    21   ar
    11     5     6   am
    12     5    29    1
    13     6     7    2
    14     6     8    1
    15     8     9    2
    16     8    10   am
    17    10    11    1
    18    10    16    1
    19    11    12    1
    20    11    30    1
    21    11    31    1
    22    12    13    1
    23    12    32    1
    24    12    33    1
    25    13    14    1
    26    13    15    1
    27    13    34    1
    28    14    35    1
    29    14    36    1
    30    14    37    1
    31    15    38    1
    32    15    39    1
    33    15    40    1
    34    16    20    1
    35    16    17    1
    36    16    41    1
    37    17    18    1
    38    17    42    1
    39    17    43    1
    40    18    19    1
    41    18    44    1
    42    18    45    1
    43    19    20    1
    44    19    46    1
    45    19    47    1
    46    20    48    1
    47    20    49    1
    48    21    22   ar
    49    21    50    1
    50    22    23   ar
    51    22    51    1
    52    23    24    1
@<TRIPOS>SUBSTRUCTURE
     1 ZINC000437443367        1 TEMP              0 ****  ****    0 ROOT


##########                                Name:    ZINC000579444893
##########                DOCK_Rotatable_Bonds:                   8
##########                         Heavy_Atoms:                  26
##########                    Molecular_Weight:             365.494
##########                DOCK_Rotatable_Bonds:                   8
##########                       Formal_Charge:         -0.00999993
##########                     HBond_Acceptors:                   7
##########                        HBond_Donors:                   1
##########                         Heavy_Atoms:                  26
##########                          Grid_Score:          -25.356518
##########                     Grid_vdw_energy:          -25.046627
##########                      Grid_es_energy:           -0.309891
##########           Internal_energy_repulsive:           31.681120

@<TRIPOS>MOLECULE
ZINC000579444893
 58 60 1 0 0
SMALL
USER_CHARGES


@<TRIPOS>ATOM
      1 C1        -12.7672   -0.3616   56.5405 C.3     1  ZINC000579444893   -0.1600
      2 C2        -12.5452   -1.4960   57.5430 C.3     1  ZINC000579444893    0.1700
      3 H3        -12.0889   -2.3456   57.0351 H       1  ZINC000579444893    0.0900
      4 N4        -11.6594   -1.0342   58.6145 N.am    1  ZINC000579444893   -0.7400
      5 C5        -10.3344   -1.2697   58.5421 C.2     1  ZINC000579444893    0.7100
      6 O6         -9.8744   -1.8668   57.5878 O.2     1  ZINC000579444893   -0.5900
      7 N7         -9.5193   -0.8435   59.5271 N.am    1  ZINC000579444893   -0.6300
      8 C8         -8.0793   -1.1012   59.4490 C.3     1  ZINC000579444893    0.0800
      9 C9        -10.0732   -0.1226   60.6758 C.3     1  ZINC000579444893    0.1100
     10 C10       -10.5040    1.2790   60.2389 C.3     1  ZINC000579444893    0.0600
     11 H11       -11.2322    1.2079   59.4310 H       1  ZINC000579444893    0.1000
     12 C12        -9.2741    2.0833   59.7679 C.3     1  ZINC000579444893   -0.1600
     13 C13        -9.5623    3.5096   60.3058 C.3     1  ZINC000579444893    0.0800
     14 H14       -10.2278    4.0528   59.6349 H       1  ZINC000579444893    0.1000
     15 F15        -8.3732    4.2180   60.5097 F       1  ZINC000579444893   -0.2000
     16 C16       -10.2631    3.2006   61.6523 C.3     1  ZINC000579444893    0.0200
     17 N17       -11.0915    2.0022   61.3817 N.3     1  ZINC000579444893   -0.5000
     18 C18       -11.1704    1.1382   62.5670 C.3     1  ZINC000579444893    0.1000
     19 C19       -11.7430    1.9198   63.7212 C.2     1  ZINC000579444893    0.0800
     20 C20       -13.0090    2.3877   63.8179 C.2     1  ZINC000579444893   -0.2500
     21 C21       -13.1290    3.0548   65.0415 C.2     1  ZINC000579444893    0.0400
     22 N22       -11.9763    2.9898   65.6572 N.2     1  ZINC000579444893   -0.2900
     23 N23       -11.0867    2.2735   64.8461 N.pl3   1  ZINC000579444893   -0.3700
     24 C24        -9.6881    1.9700   65.1595 C.3     1  ZINC000579444893    0.0900
     25 C25       -13.8890   -1.9200   58.1392 C.3     1  ZINC000579444893   -0.1000
     26 C26       -13.7044   -3.1343   59.0827 C.3     1  ZINC000579444893   -0.1200
     27 C27       -14.9380   -3.0342   60.0140 C.3     1  ZINC000579444893   -0.1300
     28 C28       -15.1145   -1.5195   60.2466 C.3     1  ZINC000579444893   -0.1300
     29 C29       -14.4475   -0.8110   59.0546 C.3     1  ZINC000579444893   -0.1200
     30 H30       -11.8035    0.0024   56.1845 H       1  ZINC000579444893    0.0600
     31 H31       -13.3501   -0.7313   55.6968 H       1  ZINC000579444893    0.0700
     32 H32       -13.3062    0.4520   57.0259 H       1  ZINC000579444893    0.0500
     33 H33       -12.0265   -0.5590   59.3763 H       1  ZINC000579444893    0.4000
     34 H34        -7.6025   -0.3222   58.8541 H       1  ZINC000579444893    0.0600
     35 H35        -7.6553   -1.1022   60.4532 H       1  ZINC000579444893    0.0800
     36 H36        -7.9085   -2.0709   58.9816 H       1  ZINC000579444893    0.0700
     37 H37       -10.9365   -0.6640   61.0626 H       1  ZINC000579444893    0.0900
     38 H38        -9.3151   -0.0433   61.4550 H       1  ZINC000579444893    0.0900
     39 H39        -8.3605    1.6830   60.2073 H       1  ZINC000579444893    0.1100
     40 H40        -9.2100    2.0873   58.6798 H       1  ZINC000579444893    0.0800
     41 H41        -9.5240    2.9862   62.4242 H       1  ZINC000579444893    0.0600
     42 H42       -10.8945    4.0369   61.9521 H       1  ZINC000579444893    0.0900
     43 H43       -11.8129    0.2843   62.3521 H       1  ZINC000579444893    0.1100
     44 H44       -10.1722    0.7855   62.8266 H       1  ZINC000579444893    0.0500
     45 H45       -13.7889    2.2676   63.0806 H       1  ZINC000579444893    0.1500
     46 H46       -14.0191    3.5403   65.4133 H       1  ZINC000579444893    0.1800
     47 H47        -9.6272    0.9940   65.6409 H       1  ZINC000579444893    0.0800
     48 H48        -9.1038    1.9584   64.2395 H       1  ZINC000579444893    0.0800
     49 H49        -9.2928    2.7318   65.8314 H       1  ZINC000579444893    0.0900
     50 H50       -14.5999   -2.1545   57.3468 H       1  ZINC000579444893    0.0800
     51 H51       -13.7204   -4.0672   58.5193 H       1  ZINC000579444893    0.0700
     52 H52       -12.7808   -3.0426   59.6541 H       1  ZINC000579444893    0.0700
     53 H53       -15.8193   -3.4504   59.5258 H       1  ZINC000579444893    0.0700
     54 H54       -14.7464   -3.5453   60.9574 H       1  ZINC000579444893    0.0700
     55 H55       -16.1746   -1.2685   60.2846 H       1  ZINC000579444893    0.0600
     56 H56       -14.6272   -1.2251   61.1761 H       1  ZINC000579444893    0.0600
     57 H57       -13.6365   -0.1729   59.4055 H       1  ZINC000579444893    0.0600
     58 H58       -15.1838   -0.2163   58.5141 H       1  ZINC000579444893    0.0600
@<TRIPOS>BOND
     1     1     2    1
     2     1    30    1
     3     1    31    1
     4     1    32    1
     5     2     3    1
     6     2     4    1
     7     2    25    1
     8     4     5   am
     9     4    33    1
    10     5     6    2
    11     5     7   am
    12     7     8    1
    13     7     9    1
    14     8    34    1
    15     8    35    1
    16     8    36    1
    17     9    10    1
    18     9    37    1
    19     9    38    1
    20    10    11    1
    21    10    17    1
    22    10    12    1
    23    12    13    1
    24    12    39    1
    25    12    40    1
    26    13    14    1
    27    13    15    1
    28    13    16    1
    29    16    17    1
    30    16    41    1
    31    16    42    1
    32    17    18    1
    33    18    19    1
    34    18    43    1
    35    18    44    1
    36    19    23    1
    37    19    20    2
    38    20    21    1
    39    20    45    1
    40    21    22    2
    41    21    46    1
    42    22    23    1
    43    23    24    1
    44    24    47    1
    45    24    48    1
    46    24    49    1
    47    25    29    1
    48    25    26    1
    49    25    50    1
    50    26    27    1
    51    26    51    1
    52    26    52    1
    53    27    28    1
    54    27    53    1
    55    27    54    1
    56    28    29    1
    57    28    55    1
    58    28    56    1
    59    29    57    1
    60    29    58    1
@<TRIPOS>SUBSTRUCTURE
     1 ZINC000579444893        1 TEMP              0 ****  ****    0 ROOT


##########                                Name:    ZINC001039666729
##########                DOCK_Rotatable_Bonds:                   3
##########                         Heavy_Atoms:                  25
##########                    Molecular_Weight:             344.376
##########                DOCK_Rotatable_Bonds:                   3
##########                       Formal_Charge:          -0.0199998
##########                     HBond_Acceptors:                  10
##########                        HBond_Donors:                   2
##########                         Heavy_Atoms:                  25
##########                          Grid_Score:          -25.310005
##########                     Grid_vdw_energy:          -25.070436
##########                      Grid_es_energy:           -0.239568
##########           Internal_energy_repulsive:           43.238239

@<TRIPOS>MOLECULE
ZINC001039666729
 45 47 1 0 0
SMALL
USER_CHARGES


@<TRIPOS>ATOM
      1 C1         -7.7136    1.6695   54.3684 C.3     1  ZINC001039666729   -0.1100
      2 C2         -7.7004    1.4634   55.8613 C.ar    1  ZINC001039666729    0.2200
      3 C3         -7.0596    2.3715   56.6889 C.ar    1  ZINC001039666729   -0.3000
      4 C4         -7.0711    2.1446   58.0564 C.ar    1  ZINC001039666729    0.1900
      5 N5         -7.6894    1.0746   58.5277 N.ar    1  ZINC001039666729   -0.5800
      6 C6         -8.2929    0.2254   57.7087 C.ar    1  ZINC001039666729    0.6000
      7 N7         -8.9309   -0.8840   58.2360 N.pl3   1  ZINC001039666729   -0.5900
      8 C8         -8.5891   -1.4871   59.5604 C.3     1  ZINC001039666729    0.1200
      9 C9         -9.2732   -0.6530   60.6459 C.3     1  ZINC001039666729    0.0900
     10 N10       -10.7417   -0.7442   60.4508 N.am    1  ZINC001039666729   -0.7400
     11 C11       -11.2908    0.3140   59.7758 C.2     1  ZINC001039666729    0.5200
     12 O12       -10.5965    1.2291   59.3868 O.2     1  ZINC001039666729   -0.5200
     13 C13       -12.7772    0.3150   59.5273 C.3     1  ZINC001039666729   -0.1500
     14 C14       -13.0424    0.3291   58.0205 C.3     1  ZINC001039666729    0.1100
     15 N15       -12.3558   -0.8403   57.4132 N.am    1  ZINC001039666729   -0.6100
     16 C16       -12.9380   -2.0511   57.3059 C.2     1  ZINC001039666729    0.6100
     17 O17       -12.3305   -2.9752   56.8014 O.2     1  ZINC001039666729   -0.5200
     18 C18       -14.3154   -2.2553   57.8017 C.2     1  ZINC001039666729   -0.0400
     19 N19       -15.1031   -1.3566   58.3725 N.2     1  ZINC001039666729   -0.2500
     20 N20       -16.2221   -1.9198   58.6629 N.pl3   1  ZINC001039666729   -0.2300
     21 N21       -16.2224   -3.1564   58.3133 N.2     1  ZINC001039666729   -0.2800
     22 C22       -15.0687   -3.4456   57.7609 C.2     1  ZINC001039666729    0.0400
     23 C23       -10.9762   -0.5681   56.9331 C.3     1  ZINC001039666729    0.1100
     24 C24       -10.0423   -1.6081   57.5468 C.3     1  ZINC001039666729    0.1300
     25 N25        -8.3050    0.4161   56.3978 N.ar    1  ZINC001039666729   -0.5700
     26 H26        -8.5849    2.2628   54.0912 H       1  ZINC001039666729    0.0800
     27 H27        -6.8066    2.1928   54.0658 H       1  ZINC001039666729    0.0800
     28 H28        -7.7588    0.7020   53.8684 H       1  ZINC001039666729    0.0800
     29 H29        -6.5618    3.2371   56.2775 H       1  ZINC001039666729    0.1400
     30 H30        -6.5808    2.8329   58.7288 H       1  ZINC001039666729    0.1600
     31 H31        -8.9503   -2.5146   59.6022 H       1  ZINC001039666729    0.0800
     32 H32        -7.5091   -1.4686   59.7066 H       1  ZINC001039666729    0.0900
     33 H33        -9.0085   -1.0421   61.6290 H       1  ZINC001039666729    0.0800
     34 H34        -8.9559    0.3866   60.5644 H       1  ZINC001039666729    0.1000
     35 H35       -11.2690   -1.4913   60.7746 H       1  ZINC001039666729    0.4100
     36 H36       -13.2194   -0.5797   59.9657 H       1  ZINC001039666729    0.0800
     37 H37       -13.2211    1.2002   59.9827 H       1  ZINC001039666729    0.1100
     38 H38       -14.1145    0.2622   57.8358 H       1  ZINC001039666729    0.1100
     39 H39       -12.6517    1.2500   57.5875 H       1  ZINC001039666729    0.0900
     40 H40       -16.9679   -1.4703   59.0902 H       1  ZINC001039666729    0.4700
     41 H41       -14.7574   -4.4004   57.3636 H       1  ZINC001039666729    0.2100
     42 H42       -10.9451   -0.6388   55.8457 H       1  ZINC001039666729    0.0800
     43 H43       -10.6689    0.4299   57.2456 H       1  ZINC001039666729    0.1200
     44 H44        -9.6321   -2.2440   56.7624 H       1  ZINC001039666729    0.0700
     45 H45       -10.5900   -2.2161   58.2669 H       1  ZINC001039666729    0.0900
@<TRIPOS>BOND
     1     1     2    1
     2     1    26    1
     3     1    27    1
     4     1    28    1
     5     2    25   ar
     6     2     3   ar
     7     3     4   ar
     8     3    29    1
     9     4     5   ar
    10     4    30    1
    11     5     6   ar
    12     6     7    1
    13     6    25   ar
    14     7    24    1
    15     7     8    1
    16     8     9    1
    17     8    31    1
    18     8    32    1
    19     9    10    1
    20     9    33    1
    21     9    34    1
    22    10    11   am
    23    10    35    1
    24    11    12    2
    25    11    13    1
    26    13    14    1
    27    13    36    1
    28    13    37    1
    29    14    15    1
    30    14    38    1
    31    14    39    1
    32    15    16   am
    33    15    23    1
    34    16    17    2
    35    16    18    1
    36    18    22    1
    37    18    19    2
    38    19    20    1
    39    20    21    1
    40    20    40    1
    41    21    22    2
    42    22    41    1
    43    23    24    1
    44    23    42    1
    45    23    43    1
    46    24    44    1
    47    24    45    1
@<TRIPOS>SUBSTRUCTURE
     1 ZINC001039666729        1 TEMP              0 ****  ****    0 ROOT


##########                                Name:    ZINC001091652821
##########                DOCK_Rotatable_Bonds:                   4
##########                         Heavy_Atoms:                  24
##########                    Molecular_Weight:             345.465
##########                DOCK_Rotatable_Bonds:                   4
##########                       Formal_Charge:          -0.0199997
##########                     HBond_Acceptors:                   6
##########                        HBond_Donors:                   0
##########                         Heavy_Atoms:                  24
##########                          Grid_Score:          -25.307697
##########                     Grid_vdw_energy:          -26.020037
##########                      Grid_es_energy:            0.712339
##########           Internal_energy_repulsive:            4.252621

@<TRIPOS>MOLECULE
ZINC001091652821
 47 50 1 0 0
SMALL
USER_CHARGES


@<TRIPOS>ATOM
      1 C1         -7.9491    3.5219   59.4797 C.3     1  ZINC001091652821   -0.1000
      2 C2         -8.4002    2.2382   60.1274 C.2     1  ZINC001091652821   -0.1200
      3 C3         -8.6910    2.1550   61.4309 C.2     1  ZINC001091652821   -0.2400
      4 S4         -9.1686    0.5716   61.8498 S.3     1  ZINC001091652821    0.2100
      5 C5         -8.9617    0.0192   60.1934 C.2     1  ZINC001091652821   -0.2700
      6 C6         -9.1998   -1.3462   59.7163 C.2     1  ZINC001091652821    0.6100
      7 O7         -8.3457   -2.2004   59.8650 O.2     1  ZINC001091652821   -0.5200
      8 N8        -10.3645   -1.6556   59.1128 N.am    1  ZINC001091652821   -0.6200
      9 C9        -11.4897   -0.7432   58.8517 C.3     1  ZINC001091652821    0.0900
     10 C10       -12.1570   -1.2360   57.5572 C.3     1  ZINC001091652821   -0.0900
     11 H11       -13.2436   -1.1621   57.6033 H       1  ZINC001091652821    0.1100
     12 C12       -11.5736   -0.4560   56.3604 C.3     1  ZINC001091652821    0.0400
     13 N13       -11.3359   -1.4873   55.3184 N.3     1  ZINC001091652821   -0.5000
     14 C14       -10.3552   -1.0204   54.3295 C.3     1  ZINC001091652821    0.1200
     15 C15       -10.8847    0.2100   53.6392 C.2     1  ZINC001091652821    0.0000
     16 C16       -12.1560    0.4212   53.2601 C.2     1  ZINC001091652821   -0.0800
     17 O17       -12.2009    1.6380   52.6831 O.3     1  ZINC001091652821   -0.2000
     18 C18       -10.9642    2.1519   52.7166 C.2     1  ZINC001091652821    0.1900
     19 C19       -10.5590    3.4998   52.1782 C.3     1  ZINC001091652821   -0.0600
     20 N20       -10.1709    1.2971   53.2967 N.2     1  ZINC001091652821   -0.4700
     21 C21       -10.8154   -2.6555   56.0737 C.3     1  ZINC001091652821    0.0400
     22 C22       -11.6775   -2.7001   57.3823 C.3     1  ZINC001091652821   -0.0700
     23 C23       -12.8257   -3.7060   57.2796 C.3     1  ZINC001091652821   -0.1300
     24 C24       -10.7573   -2.9706   58.5804 C.3     1  ZINC001091652821    0.1200
     25 C25        -8.5488    1.0681   59.4210 C.2     1  ZINC001091652821   -0.0500
     26 H26        -8.8188    4.0753   59.1254 H       1  ZINC001091652821    0.0700
     27 H27        -7.4066    4.1251   60.2078 H       1  ZINC001091652821    0.0700
     28 H28        -7.2957    3.2940   58.6376 H       1  ZINC001091652821    0.0700
     29 H29        -8.6308    2.9801   62.1252 H       1  ZINC001091652821    0.1700
     30 H30       -12.2009   -0.7807   59.6769 H       1  ZINC001091652821    0.0800
     31 H31       -11.1229    0.2747   58.7194 H       1  ZINC001091652821    0.0800
     32 H32       -12.2893    0.2852   56.0048 H       1  ZINC001091652821    0.0800
     33 H33       -10.6360    0.0240   56.6405 H       1  ZINC001091652821    0.0500
     34 H34        -9.4184   -0.7801   54.8323 H       1  ZINC001091652821    0.0500
     35 H35       -10.1811   -1.8042   53.5923 H       1  ZINC001091652821    0.1000
     36 H36       -12.9860   -0.2570   53.3927 H       1  ZINC001091652821    0.2100
     37 H37       -11.4303    3.9984   51.7534 H       1  ZINC001091652821    0.0900
     38 H38       -10.1517    4.1067   52.9869 H       1  ZINC001091652821    0.1000
     39 H39        -9.8019    3.3697   51.4048 H       1  ZINC001091652821    0.1000
     40 H40       -10.9594   -3.5723   55.5021 H       1  ZINC001091652821    0.0900
     41 H41        -9.7604   -2.5158   56.3096 H       1  ZINC001091652821    0.0500
     42 H42       -12.4201   -4.7055   57.1232 H       1  ZINC001091652821    0.0600
     43 H43       -13.4064   -3.6898   58.2019 H       1  ZINC001091652821    0.0600
     44 H44       -13.4685   -3.4392   56.4407 H       1  ZINC001091652821    0.0700
     45 H45        -9.8652   -3.5051   58.2538 H       1  ZINC001091652821    0.0900
     46 H46       -11.2870   -3.5520   59.3351 H       1  ZINC001091652821    0.0800
     47 H47        -8.3513    0.9845   58.3626 H       1  ZINC001091652821    0.1500
@<TRIPOS>BOND
     1     1     2    1
     2     1    26    1
     3     1    27    1
     4     1    28    1
     5     2    25    1
     6     2     3    2
     7     3     4    1
     8     3    29    1
     9     4     5    1
    10     5     6    1
    11     5    25    2
    12     6     7    2
    13     6     8   am
    14     8    24    1
    15     8     9    1
    16     9    10    1
    17     9    30    1
    18     9    31    1
    19    10    11    1
    20    10    22    1
    21    10    12    1
    22    12    13    1
    23    12    32    1
    24    12    33    1
    25    13    14    1
    26    13    21    1
    27    14    15    1
    28    14    34    1
    29    14    35    1
    30    15    20    1
    31    15    16    2
    32    16    17    1
    33    16    36    1
    34    17    18    1
    35    18    19    1
    36    18    20    2
    37    19    37    1
    38    19    38    1
    39    19    39    1
    40    21    22    1
    41    21    40    1
    42    21    41    1
    43    22    23    1
    44    22    24    1
    45    23    42    1
    46    23    43    1
    47    23    44    1
    48    24    45    1
    49    24    46    1
    50    25    47    1
@<TRIPOS>SUBSTRUCTURE
     1 ZINC001091652821        1 TEMP              0 ****  ****    0 ROOT


##########                                Name:    ZINC001122903793
##########                DOCK_Rotatable_Bonds:                   4
##########                         Heavy_Atoms:                  25
##########                    Molecular_Weight:             399.968
##########                DOCK_Rotatable_Bonds:                   4
##########                       Formal_Charge:           0.0100003
##########                     HBond_Acceptors:                   9
##########                        HBond_Donors:                   0
##########                         Heavy_Atoms:                  25
##########                          Grid_Score:          -25.217028
##########                     Grid_vdw_energy:          -25.713539
##########                      Grid_es_energy:            0.496512
##########           Internal_energy_repulsive:           23.212755

@<TRIPOS>MOLECULE
ZINC001122903793
 47 50 1 0 0
SMALL
USER_CHARGES


@<TRIPOS>ATOM
      1 C1        -12.4464   -0.3683   59.5993 C.3     1  ZINC001122903793   -0.1400
      2 C2        -12.2755   -1.2752   58.3789 C.3     1  ZINC001122903793   -0.0400
      3 H3        -13.2543   -1.5344   57.9754 H       1  ZINC001122903793    0.1000
      4 S4        -11.3929   -2.7905   58.8623 S.3     1  ZINC001122903793   -0.2500
      5 C5        -11.0638   -3.5642   57.2493 C.3     1  ZINC001122903793   -0.0800
      6 C6        -10.4043   -2.5245   56.3367 C.3     1  ZINC001122903793    0.0700
      7 N7        -11.3168   -1.3988   56.1240 N.3     1  ZINC001122903793   -0.4800
      8 C8        -10.9362   -0.6528   55.0206 C.2     1  ZINC001122903793    0.3700
      9 N9        -11.6421   -0.4595   53.9310 N.2     1  ZINC001122903793   -0.2900
     10 N10       -10.9915    0.2823   53.1077 N.2     1  ZINC001122903793   -0.2400
     11 C11        -9.8268    0.6090   53.6226 C.2     1  ZINC001122903793    0.2600
     12 C12        -8.7939    1.4464   52.9911 C.2     1  ZINC001122903793   -0.1600
     13 C13        -7.7609    1.0050   52.2349 C.2     1  ZINC001122903793    0.1600
     14 Cl14       -7.4951   -0.6753   51.8888 Cl      1  ZINC001122903793    0.0300
     15 N15        -6.9769    1.9596   51.7859 N.2     1  ZINC001122903793   -0.4600
     16 C16        -7.2761    3.1736   52.1100 C.2     1  ZINC001122903793    0.0300
     17 S17        -8.6852    3.2030   53.0773 S.3     1  ZINC001122903793    0.2200
     18 N18        -9.7585    0.0233   54.8669 N.pl3   1  ZINC001122903793   -0.4600
     19 C19        -8.6514    0.1023   55.8232 C.3     1  ZINC001122903793    0.1100
     20 C20        -8.4522    1.5568   56.2537 C.3     1  ZINC001122903793    0.0700
     21 H21        -9.3020    2.1632   55.9405 H       1  ZINC001122903793    0.0800
     22 C22        -8.2675    1.6424   57.7898 C.3     1  ZINC001122903793   -0.1500
     23 C23        -7.4728    2.9706   57.9175 C.3     1  ZINC001122903793   -0.1500
     24 C24        -6.6061    2.9581   56.6399 C.3     1  ZINC001122903793    0.0500
     25 O25        -7.2350    2.0792   55.6978 O.3     1  ZINC001122903793   -0.3700
     26 C26       -11.4534   -0.5489   57.3089 C.3     1  ZINC001122903793    0.1000
     27 H27       -10.4647   -0.3236   57.7089 H       1  ZINC001122903793    0.0800
     28 C28       -12.1540    0.7549   56.9212 C.3     1  ZINC001122903793   -0.1500
     29 H29       -12.9692    0.5418   59.3054 H       1  ZINC001122903793    0.0800
     30 H30       -13.0254   -0.8901   60.3614 H       1  ZINC001122903793    0.0700
     31 H31       -11.4662   -0.1108   60.0007 H       1  ZINC001122903793    0.0700
     32 H32       -10.3938   -4.4138   57.3805 H       1  ZINC001122903793    0.1200
     33 H33       -12.0015   -3.8987   56.8055 H       1  ZINC001122903793    0.0900
     34 H34        -9.4869   -2.1641   56.8021 H       1  ZINC001122903793    0.0700
     35 H35       -10.1661   -2.9839   55.3774 H       1  ZINC001122903793    0.0900
     36 H36        -6.7173    4.0472   51.8086 H       1  ZINC001122903793    0.2100
     37 H37        -8.8820   -0.5071   56.6970 H       1  ZINC001122903793    0.1200
     38 H38        -7.7391   -0.2661   55.3539 H       1  ZINC001122903793    0.1000
     39 H39        -9.2294    1.7097   58.2979 H       1  ZINC001122903793    0.0900
     40 H40        -7.6861    0.7994   58.1631 H       1  ZINC001122903793    0.0800
     41 H41        -8.1467    3.8272   57.9207 H       1  ZINC001122903793    0.0800
     42 H42        -6.8475    2.9643   58.8105 H       1  ZINC001122903793    0.0900
     43 H43        -6.5472    3.9636   56.2232 H       1  ZINC001122903793    0.0700
     44 H44        -5.6057    2.5948   56.8753 H       1  ZINC001122903793    0.0700
     45 H45       -13.1418    0.5307   56.5184 H       1  ZINC001122903793    0.0600
     46 H46       -12.2562    1.3883   57.8024 H       1  ZINC001122903793    0.0800
     47 H47       -11.5633    1.2744   56.1668 H       1  ZINC001122903793    0.0600
@<TRIPOS>BOND
     1     1     2    1
     2     1    29    1
     3     1    30    1
     4     1    31    1
     5     2     3    1
     6     2    26    1
     7     2     4    1
     8     4     5    1
     9     5     6    1
    10     5    32    1
    11     5    33    1
    12     6     7    1
    13     6    34    1
    14     6    35    1
    15     7     8    1
    16     7    26    1
    17     8    18    1
    18     8     9    2
    19     9    10    1
    20    10    11    2
    21    11    12    1
    22    11    18    1
    23    12    17    1
    24    12    13    2
    25    13    14    1
    26    13    15    1
    27    15    16    2
    28    16    17    1
    29    16    36    1
    30    18    19    1
    31    19    20    1
    32    19    37    1
    33    19    38    1
    34    20    21    1
    35    20    25    1
    36    20    22    1
    37    22    23    1
    38    22    39    1
    39    22    40    1
    40    23    24    1
    41    23    41    1
    42    23    42    1
    43    24    25    1
    44    24    43    1
    45    24    44    1
    46    26    27    1
    47    26    28    1
    48    28    45    1
    49    28    46    1
    50    28    47    1
@<TRIPOS>SUBSTRUCTURE
     1 ZINC001122903793        1 TEMP              0 ****  ****    0 ROOT


##########                                Name:    ZINC001067560454
##########                DOCK_Rotatable_Bonds:                   4
##########                         Heavy_Atoms:                  25
##########                    Molecular_Weight:             342.444
##########                DOCK_Rotatable_Bonds:                   4
##########                       Formal_Charge:          0.00999971
##########                     HBond_Acceptors:                   7
##########                        HBond_Donors:                   1
##########                         Heavy_Atoms:                  25
##########                          Grid_Score:          -25.198187
##########                     Grid_vdw_energy:          -25.162001
##########                      Grid_es_energy:           -0.036187
##########           Internal_energy_repulsive:           16.341419

@<TRIPOS>MOLECULE
ZINC001067560454
 51 54 1 0 0
SMALL
USER_CHARGES


@<TRIPOS>ATOM
      1 C1         -9.3090   -0.8124   57.8821 C.3     1  ZINC001067560454   -0.1500
      2 C2         -9.7313    0.4110   57.0661 C.3     1  ZINC001067560454    0.1000
      3 H3         -9.6985    1.2983   57.6985 H       1  ZINC001067560454    0.0600
      4 C4         -8.7751    0.5909   55.8849 C.3     1  ZINC001067560454   -0.1200
      5 C5         -9.2133    1.8042   55.0601 C.3     1  ZINC001067560454    0.1400
      6 H6         -9.1540    2.7029   55.6741 H       1  ZINC001067560454    0.0900
      7 N7         -8.3352    1.9478   53.8961 N.am    1  ZINC001067560454   -0.7200
      8 C8         -7.0873    2.4333   54.0493 C.2     1  ZINC001067560454    0.5400
      9 O9         -6.6916    2.7525   55.1503 O.2     1  ZINC001067560454   -0.5300
     10 C10        -6.1834    2.5793   52.8522 C.3     1  ZINC001067560454   -0.1100
     11 C11        -4.9072    3.3637   53.1636 C.3     1  ZINC001067560454   -0.1300
     12 C12        -5.9305    1.2584   52.1065 C.3     1  ZINC001067560454   -0.1200
     13 C13        -7.1794    1.5826   51.2699 C.3     1  ZINC001067560454   -0.1400
     14 C14        -6.9107    3.0634   51.5866 C.3     1  ZINC001067560454   -0.1200
     15 C15       -10.6565    1.5988   54.5917 C.3     1  ZINC001067560454   -0.1200
     16 C16       -11.5583    1.3897   55.8103 C.3     1  ZINC001067560454    0.0600
     17 N17       -11.0982    0.2173   56.5656 N.3     1  ZINC001067560454   -0.4900
     18 C18       -11.9679   -0.0784   57.6007 C.ar    1  ZINC001067560454    0.4400
     19 C19       -12.6303   -1.3166   57.6516 C.ar    1  ZINC001067560454   -0.0800
     20 N20       -12.6458   -2.4216   56.8681 N.2     1  ZINC001067560454   -0.4700
     21 C21       -13.4509   -3.3056   57.3820 C.2     1  ZINC001067560454    0.2700
     22 N22       -14.0032   -2.8208   58.5302 N.pl3   1  ZINC001067560454   -0.4800
     23 C23       -14.9574   -3.5190   59.3952 C.3     1  ZINC001067560454    0.0800
     24 C24       -13.5010   -1.5594   58.7276 C.ar    1  ZINC001067560454    0.2800
     25 N25       -13.6651   -0.6177   59.6507 N.ar    1  ZINC001067560454   -0.5200
     26 C26       -13.0228    0.5280   59.5621 C.ar    1  ZINC001067560454    0.3300
     27 N27       -12.1918    0.8000   58.5726 N.ar    1  ZINC001067560454   -0.5100
     28 H28        -9.3419   -1.6998   57.2499 H       1  ZINC001067560454    0.0700
     29 H29        -8.2947   -0.6686   58.2540 H       1  ZINC001067560454    0.0700
     30 H30        -9.9899   -0.9405   58.7236 H       1  ZINC001067560454    0.0500
     31 H31        -7.7630    0.7502   56.2571 H       1  ZINC001067560454    0.0800
     32 H32        -8.7973   -0.3015   55.2595 H       1  ZINC001067560454    0.0800
     33 H33        -8.6521    1.6937   53.0153 H       1  ZINC001067560454    0.4000
     34 H34        -4.4341    2.9492   54.0537 H       1  ZINC001067560454    0.0600
     35 H35        -4.2210    3.2907   52.3198 H       1  ZINC001067560454    0.0700
     36 H36        -5.1575    4.4100   53.3389 H       1  ZINC001067560454    0.0600
     37 H37        -5.0066    1.2536   51.5281 H       1  ZINC001067560454    0.0900
     38 H38        -6.0427    0.3743   52.7341 H       1  ZINC001067560454    0.0700
     39 H39        -7.0734    1.3359   50.2135 H       1  ZINC001067560454    0.0700
     40 H40        -8.1053    1.2045   51.7030 H       1  ZINC001067560454    0.0800
     41 H41        -7.8144    3.6364   51.7944 H       1  ZINC001067560454    0.0800
     42 H42        -6.2548    3.5520   50.8661 H       1  ZINC001067560454    0.0900
     43 H43       -10.9886    2.4782   54.0399 H       1  ZINC001067560454    0.0800
     44 H44       -10.7083    0.7222   53.9459 H       1  ZINC001067560454    0.0800
     45 H45       -11.5166    2.2723   56.4487 H       1  ZINC001067560454    0.0700
     46 H46       -12.5843    1.2289   55.4797 H       1  ZINC001067560454    0.0800
     47 H47       -13.6522   -4.2794   56.9607 H       1  ZINC001067560454    0.2300
     48 H48       -14.4147   -4.0871   60.1508 H       1  ZINC001067560454    0.0800
     49 H49       -15.6051   -2.7910   59.8836 H       1  ZINC001067560454    0.0900
     50 H50       -15.5624   -4.1985   58.7948 H       1  ZINC001067560454    0.0900
     51 H51       -13.1788    1.2720   60.3292 H       1  ZINC001067560454    0.2100
@<TRIPOS>BOND
     1     1     2    1
     2     1    28    1
     3     1    29    1
     4     1    30    1
     5     2     3    1
     6     2    17    1
     7     2     4    1
     8     4     5    1
     9     4    31    1
    10     4    32    1
    11     5     6    1
    12     5     7    1
    13     5    15    1
    14     7     8   am
    15     7    33    1
    16     8     9    2
    17     8    10    1
    18    10    14    1
    19    10    11    1
    20    10    12    1
    21    11    34    1
    22    11    35    1
    23    11    36    1
    24    12    13    1
    25    12    37    1
    26    12    38    1
    27    13    14    1
    28    13    39    1
    29    13    40    1
    30    14    41    1
    31    14    42    1
    32    15    16    1
    33    15    43    1
    34    15    44    1
    35    16    17    1
    36    16    45    1
    37    16    46    1
    38    17    18    1
    39    18    27   ar
    40    18    19   ar
    41    19    24   ar
    42    19    20    1
    43    20    21    2
    44    21    22    1
    45    21    47    1
    46    22    23    1
    47    22    24    1
    48    23    48    1
    49    23    49    1
    50    23    50    1
    51    24    25   ar
    52    25    26   ar
    53    26    27   ar
    54    26    51    1
@<TRIPOS>SUBSTRUCTURE
     1 ZINC001067560454        1 TEMP              0 ****  ****    0 ROOT


##########                                Name:    ZINC000345028113
##########                DOCK_Rotatable_Bonds:                   5
##########                         Heavy_Atoms:                  21
##########                    Molecular_Weight:             331.838
##########                DOCK_Rotatable_Bonds:                   5
##########                       Formal_Charge:         4.47035e-07
##########                     HBond_Acceptors:                   6
##########                        HBond_Donors:                   0
##########                         Heavy_Atoms:                  21
##########                          Grid_Score:          -25.159178
##########                     Grid_vdw_energy:          -25.502937
##########                      Grid_es_energy:            0.343759
##########           Internal_energy_repulsive:           15.679125

@<TRIPOS>MOLECULE
ZINC000345028113
 40 41 1 0 0
SMALL
USER_CHARGES


@<TRIPOS>ATOM
      1 C1        -14.3428   -2.4372   60.8068 C.3     1  ZINC000345028113   -0.1700
      2 C2        -13.7426   -1.5624   59.7042 C.3     1  ZINC000345028113    0.1400
      3 H3        -12.8995   -1.0000   60.1054 H       1  ZINC000345028113    0.1100
      4 C4        -14.8074   -0.5885   59.1886 C.3     1  ZINC000345028113   -0.0700
      5 H5        -14.3714    0.0612   58.4298 H       1  ZINC000345028113    0.0900
      6 C6        -15.3324    0.2590   60.3493 C.3     1  ZINC000345028113   -0.1400
      7 S7        -16.1720   -1.5438   58.4616 S.3     1  ZINC000345028113   -0.2400
      8 C8        -15.3114   -2.5847   57.2456 C.3     1  ZINC000345028113   -0.1100
      9 C9        -14.1956   -3.3566   57.9579 C.3     1  ZINC000345028113    0.1000
     10 N10       -13.2834   -2.4113   58.6037 N.am    1  ZINC000345028113   -0.6100
     11 C11       -12.0070   -2.3216   58.1805 C.2     1  ZINC000345028113    0.5200
     12 O12       -11.2461   -1.5395   58.7100 O.2     1  ZINC000345028113   -0.5300
     13 C13       -11.5251   -3.1930   57.0494 C.3     1  ZINC000345028113   -0.1400
     14 C14       -10.2096   -2.6363   56.5014 C.3     1  ZINC000345028113    0.0700
     15 O15       -10.3671   -1.2475   56.2040 O.3     1  ZINC000345028113   -0.3000
     16 C16        -9.5539   -0.7248   55.2477 C.ar    1  ZINC000345028113    0.1300
     17 C17        -9.6176   -1.2003   53.9470 C.ar    1  ZINC000345028113   -0.1700
     18 C18        -8.7908   -0.6680   52.9758 C.ar    1  ZINC000345028113   -0.1100
     19 C19        -7.8992    0.3396   53.3008 C.ar    1  ZINC000345028113    0.0800
     20 F20        -7.0921    0.8591   52.3500 F       1  ZINC000345028113   -0.1300
     21 C21        -7.8338    0.8162   54.5994 C.ar    1  ZINC000345028113   -0.1100
     22 C22        -8.6631    0.2895   55.5718 C.ar    1  ZINC000345028113   -0.0400
     23 Cl23       -8.5814    0.8867   57.1997 Cl      1  ZINC000345028113   -0.0400
     24 H24       -13.5854   -3.1299   61.1737 H       1  ZINC000345028113    0.0600
     25 H25       -14.6847   -1.8052   61.6263 H       1  ZINC000345028113    0.0800
     26 H26       -15.1859   -2.9997   60.4057 H       1  ZINC000345028113    0.0800
     27 H27       -14.5092    0.8219   60.7894 H       1  ZINC000345028113    0.0800
     28 H28       -16.0895    0.9511   59.9805 H       1  ZINC000345028113    0.0700
     29 H29       -15.7722   -0.3921   61.1047 H       1  ZINC000345028113    0.0700
     30 H30       -16.0165   -3.2879   56.8023 H       1  ZINC000345028113    0.1200
     31 H31       -14.8806   -1.9560   56.4662 H       1  ZINC000345028113    0.0900
     32 H32       -14.6315   -4.0129   58.7110 H       1  ZINC000345028113    0.0900
     33 H33       -13.6451   -3.9533   57.2306 H       1  ZINC000345028113    0.1000
     34 H34       -11.3661   -4.2076   57.4147 H       1  ZINC000345028113    0.1100
     35 H35       -12.2728   -3.2054   56.2563 H       1  ZINC000345028113    0.1100
     36 H36        -9.4237   -2.7614   57.2464 H       1  ZINC000345028113    0.0800
     37 H37        -9.9378   -3.1739   55.5929 H       1  ZINC000345028113    0.0800
     38 H38       -10.3127   -1.9868   53.6927 H       1  ZINC000345028113    0.1500
     39 H39        -8.8402   -1.0387   51.9627 H       1  ZINC000345028113    0.1500
     40 H40        -7.1375    1.6023   54.8516 H       1  ZINC000345028113    0.1500
@<TRIPOS>BOND
     1     1     2    1
     2     1    24    1
     3     1    25    1
     4     1    26    1
     5     2     3    1
     6     2    10    1
     7     2     4    1
     8     4     5    1
     9     4     6    1
    10     4     7    1
    11     6    27    1
    12     6    28    1
    13     6    29    1
    14     7     8    1
    15     8     9    1
    16     8    30    1
    17     8    31    1
    18     9    10    1
    19     9    32    1
    20     9    33    1
    21    10    11   am
    22    11    12    2
    23    11    13    1
    24    13    14    1
    25    13    34    1
    26    13    35    1
    27    14    15    1
    28    14    36    1
    29    14    37    1
    30    15    16    1
    31    16    22   ar
    32    16    17   ar
    33    17    18   ar
    34    17    38    1
    35    18    19   ar
    36    18    39    1
    37    19    20    1
    38    19    21   ar
    39    21    22   ar
    40    21    40    1
    41    22    23    1
@<TRIPOS>SUBSTRUCTURE
     1 ZINC000345028113        1 TEMP              0 ****  ****    0 ROOT


##########                                Name:    ZINC000836820897
##########                DOCK_Rotatable_Bonds:                   5
##########                         Heavy_Atoms:                  22
##########                    Molecular_Weight:             330.355
##########                DOCK_Rotatable_Bonds:                   5
##########                       Formal_Charge:          -0.0200003
##########                     HBond_Acceptors:                   8
##########                        HBond_Donors:                   1
##########                         Heavy_Atoms:                  22
##########                          Grid_Score:          -25.150461
##########                     Grid_vdw_energy:          -24.133465
##########                      Grid_es_energy:           -1.016997
##########           Internal_energy_repulsive:            9.035192

@<TRIPOS>MOLECULE
ZINC000836820897
 38 40 1 0 0
SMALL
USER_CHARGES


@<TRIPOS>ATOM
      1 O1         -8.0361   -2.4109   59.1597 O.2     1  ZINC000836820897   -0.5200
      2 C2         -8.8161   -1.5508   58.7997 C.2     1  ZINC000836820897    0.5800
      3 C3         -8.4377   -0.1256   58.8903 C.ar    1  ZINC000836820897   -0.1600
      4 C4         -8.4951    0.5379   60.1175 C.ar    1  ZINC000836820897   -0.0100
      5 C5         -8.1402    1.8677   60.1964 C.ar    1  ZINC000836820897   -0.1700
      6 C6         -7.7272    2.5461   59.0602 C.ar    1  ZINC000836820897    0.2200
      7 F7         -7.3805    3.8493   59.1432 F       1  ZINC000836820897   -0.1100
      8 C8         -7.6679    1.8918   57.8390 C.ar    1  ZINC000836820897   -0.7200
      9 S9         -7.1406    2.7614   56.4001 S.o2    1  ZINC000836820897    2.7000
     10 O10        -7.6111    2.0158   55.2857 O.2     1  ZINC000836820897   -0.9400
     11 O11        -7.4670    4.1276   56.6147 O.2     1  ZINC000836820897   -0.9400
     12 N12        -5.4873    2.6771   56.3547 N.am    1  ZINC000836820897   -1.0800
     13 C13        -4.6952    3.2304   57.4559 C.3     1  ZINC000836820897    0.0700
     14 C14        -3.3721    2.5391   57.7913 C.3     1  ZINC000836820897   -0.1800
     15 C15        -3.3683    3.9050   57.1022 C.3     1  ZINC000836820897   -0.1900
     16 C16        -8.0156    0.5612   57.7497 C.ar    1  ZINC000836820897    0.0600
     17 N17       -10.0240   -1.8975   58.3126 N.am    1  ZINC000836820897   -0.6200
     18 C18       -11.0542   -0.9649   57.8325 C.3     1  ZINC000836820897    0.0900
     19 C19       -12.2490   -1.8125   57.3468 C.3     1  ZINC000836820897   -0.1600
     20 C20       -11.6009   -3.1918   57.0553 C.3     1  ZINC000836820897    0.0800
     21 H21       -11.1377   -3.2052   56.0688 H       1  ZINC000836820897    0.1100
     22 F22       -12.5383   -4.2227   57.1803 F       1  ZINC000836820897   -0.1900
     23 C23       -10.5286   -3.2751   58.1672 C.3     1  ZINC000836820897    0.0800
     24 H24        -8.8171    0.0103   61.0031 H       1  ZINC000836820897    0.1500
     25 H25        -8.1846    2.3820   61.1451 H       1  ZINC000836820897    0.1600
     26 H26        -5.0435    2.2614   55.5990 H       1  ZINC000836820897    0.4200
     27 H27        -5.2681    3.6496   58.2829 H       1  ZINC000836820897    0.1400
     28 H28        -3.0745    2.5032   58.8392 H       1  ZINC000836820897    0.1100
     29 H29        -3.0912    1.6726   57.1926 H       1  ZINC000836820897    0.1000
     30 H30        -3.0847    3.9373   56.0502 H       1  ZINC000836820897    0.1000
     31 H31        -3.0682    4.7679   57.6968 H       1  ZINC000836820897    0.1000
     32 H32        -7.9689    0.0525   56.7982 H       1  ZINC000836820897    0.1600
     33 H33       -11.3699   -0.3107   58.6452 H       1  ZINC000836820897    0.0800
     34 H34       -10.6611   -0.3711   57.0072 H       1  ZINC000836820897    0.0800
     35 H35       -13.0038   -1.8985   58.1283 H       1  ZINC000836820897    0.0900
     36 H36       -12.6787   -1.3888   56.4390 H       1  ZINC000836820897    0.1000
     37 H37        -9.7244   -3.9478   57.8691 H       1  ZINC000836820897    0.1000
     38 H38       -10.9772   -3.6097   59.1025 H       1  ZINC000836820897    0.0900
@<TRIPOS>BOND
     1     1     2    2
     2     2     3    1
     3     2    17   am
     4     3    16   ar
     5     3     4   ar
     6     4     5   ar
     7     4    24    1
     8     5     6   ar
     9     5    25    1
    10     6     7    1
    11     6     8   ar
    12     8     9    1
    13     8    16   ar
    14     9    10    2
    15     9    11    2
    16     9    12   am
    17    12    13    1
    18    12    26    1
    19    13    15    1
    20    13    14    1
    21    13    27    1
    22    14    15    1
    23    14    28    1
    24    14    29    1
    25    15    30    1
    26    15    31    1
    27    16    32    1
    28    17    23    1
    29    17    18    1
    30    18    19    1
    31    18    33    1
    32    18    34    1
    33    19    20    1
    34    19    35    1
    35    19    36    1
    36    20    21    1
    37    20    22    1
    38    20    23    1
    39    23    37    1
    40    23    38    1
@<TRIPOS>SUBSTRUCTURE
     1 ZINC000836820897        1 TEMP              0 ****  ****    0 ROOT


##########                                Name:    ZINC001013196242
##########                DOCK_Rotatable_Bonds:                   5
##########                         Heavy_Atoms:                  24
##########                    Molecular_Weight:              349.86
##########                DOCK_Rotatable_Bonds:                   5
##########                       Formal_Charge:        -3.05474e-07
##########                     HBond_Acceptors:                   6
##########                        HBond_Donors:                   1
##########                         Heavy_Atoms:                  24
##########                          Grid_Score:          -25.146265
##########                     Grid_vdw_energy:          -24.981110
##########                      Grid_es_energy:           -0.165155
##########           Internal_energy_repulsive:           15.760080

@<TRIPOS>MOLECULE
ZINC001013196242
 48 51 1 0 0
SMALL
USER_CHARGES


@<TRIPOS>ATOM
      1 C1         -8.1204    0.0356   58.8865 C.3     1  ZINC001013196242   -0.1600
      2 C2         -8.8371   -0.9899   59.7673 C.3     1  ZINC001013196242    0.1400
      3 H3         -8.1158   -1.4947   60.4099 H       1  ZINC001013196242    0.0800
      4 C4         -9.5656   -2.0236   58.8828 C.3     1  ZINC001013196242   -0.1400
      5 C5        -10.8863   -2.2744   59.6576 C.3     1  ZINC001013196242    0.1300
      6 H6        -10.7386   -3.0011   60.4564 H       1  ZINC001013196242    0.1100
      7 N7        -11.9535   -2.7045   58.7508 N.am    1  ZINC001013196242   -0.7200
      8 C8        -13.1949   -2.9244   59.2274 C.2     1  ZINC001013196242    0.5400
      9 O9        -13.4288   -2.7646   60.4067 O.2     1  ZINC001013196242   -0.5200
     10 C10       -14.2922   -3.3686   58.2949 C.3     1  ZINC001013196242   -0.1400
     11 C11       -15.5593   -2.4991   58.3767 C.3     1  ZINC001013196242   -0.0800
     12 C12       -14.9285   -1.6249   57.2874 C.3     1  ZINC001013196242   -0.1600
     13 C13       -15.5936   -0.5677   56.4130 C.3     1  ZINC001013196242   -0.1700
     14 C14       -14.4730   -0.1728   57.3789 C.3     1  ZINC001013196242   -0.1400
     15 C15       -14.1222   -2.8541   56.8546 C.3     1  ZINC001013196242   -0.0800
     16 C16       -11.1804   -0.8671   60.2347 C.3     1  ZINC001013196242    0.0800
     17 N17        -9.8550   -0.3188   60.5888 N.am    1  ZINC001013196242   -0.6000
     18 C18        -9.6210    0.6374   61.5093 C.2     1  ZINC001013196242    0.6100
     19 O19        -8.4833    1.0156   61.7182 O.2     1  ZINC001013196242   -0.5400
     20 C20       -10.7375    1.2222   62.2593 C.2     1  ZINC001013196242   -0.0400
     21 C21       -11.9613    1.5919   61.7426 C.2     1  ZINC001013196242   -0.1400
     22 C22       -12.7191    2.0997   62.8033 C.2     1  ZINC001013196242   -0.1200
     23 Cl23      -14.3421    2.7072   62.7011 Cl      1  ZINC001013196242   -0.0400
     24 C24       -11.9612    2.0327   63.9247 C.2     1  ZINC001013196242    0.0400
     25 N25       -10.7564    1.4964   63.6080 N.pl3   1  ZINC001013196242   -0.4000
     26 C26        -9.6553    1.2564   64.5441 C.3     1  ZINC001013196242    0.0700
     27 H27        -7.6130    0.7652   59.5176 H       1  ZINC001013196242    0.0700
     28 H28        -7.3888   -0.4729   58.2585 H       1  ZINC001013196242    0.0700
     29 H29        -8.8490    0.5451   58.2557 H       1  ZINC001013196242    0.0600
     30 H30        -9.7705   -1.6099   57.8953 H       1  ZINC001013196242    0.0900
     31 H31        -8.9841   -2.9420   58.8043 H       1  ZINC001013196242    0.0900
     32 H32       -11.7667   -2.8311   57.8074 H       1  ZINC001013196242    0.4000
     33 H33       -14.4912   -4.4386   58.3552 H       1  ZINC001013196242    0.1000
     34 H34       -16.4644   -3.0140   58.0545 H       1  ZINC001013196242    0.1000
     35 H35       -15.6783   -1.9888   59.3325 H       1  ZINC001013196242    0.0700
     36 H36       -15.3609   -0.5759   55.3482 H       1  ZINC001013196242    0.1000
     37 H37       -16.6093   -0.2676   56.6704 H       1  ZINC001013196242    0.0900
     38 H38       -14.7518    0.3871   58.2716 H       1  ZINC001013196242    0.0900
     39 H39       -13.5033    0.0787   56.9493 H       1  ZINC001013196242    0.1000
     40 H40       -13.0892   -2.6284   56.5900 H       1  ZINC001013196242    0.0800
     41 H41       -14.6272   -3.4679   56.1087 H       1  ZINC001013196242    0.0900
     42 H42       -11.6624   -0.2421   59.4831 H       1  ZINC001013196242    0.0800
     43 H43       -11.8070   -0.9450   61.1233 H       1  ZINC001013196242    0.1000
     44 H44       -12.2755    1.5062   60.7129 H       1  ZINC001013196242    0.1600
     45 H45       -12.2679    2.3507   64.9102 H       1  ZINC001013196242    0.1800
     46 H46        -9.6927    0.2241   64.8920 H       1  ZINC001013196242    0.0800
     47 H47        -8.7052    1.4362   64.0413 H       1  ZINC001013196242    0.1000
     48 H48        -9.7490    1.9303   65.3957 H       1  ZINC001013196242    0.0900
@<TRIPOS>BOND
     1     1     2    1
     2     1    27    1
     3     1    28    1
     4     1    29    1
     5     2     3    1
     6     2    17    1
     7     2     4    1
     8     4     5    1
     9     4    30    1
    10     4    31    1
    11     5     6    1
    12     5     7    1
    13     5    16    1
    14     7     8   am
    15     7    32    1
    16     8     9    2
    17     8    10    1
    18    10    15    1
    19    10    11    1
    20    10    33    1
    21    11    12    1
    22    11    34    1
    23    11    35    1
    24    12    14    1
    25    12    13    1
    26    12    15    1
    27    13    14    1
    28    13    36    1
    29    13    37    1
    30    14    38    1
    31    14    39    1
    32    15    40    1
    33    15    41    1
    34    16    17    1
    35    16    42    1
    36    16    43    1
    37    17    18   am
    38    18    19    2
    39    18    20    1
    40    20    25    1
    41    20    21    2
    42    21    22    1
    43    21    44    1
    44    22    23    1
    45    22    24    2
    46    24    25    1
    47    24    45    1
    48    25    26    1
    49    26    46    1
    50    26    47    1
    51    26    48    1
@<TRIPOS>SUBSTRUCTURE
     1 ZINC001013196242        1 TEMP              0 ****  ****    0 ROOT


##########                                Name:    ZINC000742270208
##########                DOCK_Rotatable_Bonds:                   5
##########                         Heavy_Atoms:                  25
##########                    Molecular_Weight:             376.328
##########                DOCK_Rotatable_Bonds:                   5
##########                       Formal_Charge:                0.02
##########                     HBond_Acceptors:                   9
##########                        HBond_Donors:                   0
##########                         Heavy_Atoms:                  25
##########                          Grid_Score:          -25.118124
##########                     Grid_vdw_energy:          -25.207447
##########                      Grid_es_energy:            0.089324
##########           Internal_energy_repulsive:            9.508823

@<TRIPOS>MOLECULE
ZINC000742270208
 37 38 1 0 0
SMALL
USER_CHARGES


@<TRIPOS>ATOM
      1 C1        -14.9293   -2.8267   57.0443 C.3     1  ZINC000742270208   -0.1400
      2 C2        -14.5658   -2.4095   58.4707 C.3     1  ZINC000742270208   -0.1400
      3 C3        -14.9266   -3.5372   59.4396 C.3     1  ZINC000742270208   -0.1400
      4 C4        -13.0867   -2.1319   58.5513 C.2     1  ZINC000742270208    0.4000
      5 O5        -12.4871   -2.3353   59.5854 O.2     1  ZINC000742270208   -0.4300
      6 C6        -12.3701   -1.6141   57.3749 C.ar    1  ZINC000742270208   -0.1000
      7 C7        -11.2809   -2.3168   56.8498 C.ar    1  ZINC000742270208   -0.0900
      8 C8        -10.6145   -1.8250   55.7473 C.ar    1  ZINC000742270208   -0.0200
      9 C9        -11.0208   -0.6391   55.1608 C.ar    1  ZINC000742270208   -0.6800
     10 S10       -10.1627   -0.0192   53.7522 S.o2    1  ZINC000742270208    2.6600
     11 O11       -10.6627   -0.7344   52.6308 O.2     1  ZINC000742270208   -0.9300
     12 O12       -10.2013    1.3979   53.8505 O.2     1  ZINC000742270208   -0.9000
     13 O13        -8.7022   -0.4207   53.9016 O.3     1  ZINC000742270208   -0.6400
     14 C14        -7.8315    0.6215   53.8275 C.ar    1  ZINC000742270208    0.0500
     15 C15        -7.4669    1.3056   54.9789 C.ar    1  ZINC000742270208    0.0900
     16 F16        -7.9766    0.9367   56.1744 F       1  ZINC000742270208   -0.0900
     17 C17        -6.5795    2.3667   54.9013 C.ar    1  ZINC000742270208    0.1100
     18 F18        -6.2243    3.0329   56.0217 F       1  ZINC000742270208   -0.1000
     19 C19        -6.0561    2.7445   53.6766 C.ar    1  ZINC000742270208   -0.1100
     20 C20        -6.4189    2.0636   52.5271 C.ar    1  ZINC000742270208    0.1200
     21 F21        -5.9068    2.4342   51.3330 F       1  ZINC000742270208   -0.1000
     22 C22        -7.3020    0.9987   52.6011 C.ar    1  ZINC000742270208    0.1200
     23 F23        -7.6553    0.3344   51.4791 F       1  ZINC000742270208   -0.0900
     24 C24       -12.0978    0.0621   55.6744 C.ar    1  ZINC000742270208   -0.0300
     25 C25       -12.7783   -0.4197   56.7727 C.ar    1  ZINC000742270208   -0.0800
     26 H26       -15.9991   -3.0275   56.9860 H       1  ZINC000742270208    0.0700
     27 H27       -14.6722   -2.0233   56.3541 H       1  ZINC000742270208    0.0600
     28 H28       -14.3756   -3.7267   56.7767 H       1  ZINC000742270208    0.0600
     29 H29       -15.1194   -1.5095   58.7383 H       1  ZINC000742270208    0.1000
     30 H30       -14.3729   -4.4372   59.1721 H       1  ZINC000742270208    0.0700
     31 H31       -14.6675   -3.2400   60.4558 H       1  ZINC000742270208    0.0600
     32 H32       -15.9964   -3.7380   59.3813 H       1  ZINC000742270208    0.0700
     33 H33       -10.9623   -3.2420   57.3069 H       1  ZINC000742270208    0.1500
     34 H34        -9.7732   -2.3665   55.3407 H       1  ZINC000742270208    0.1500
     35 H35        -5.3641    3.5716   53.6178 H       1  ZINC000742270208    0.1900
     36 H36       -12.4088    0.9868   55.2112 H       1  ZINC000742270208    0.1500
     37 H37       -13.6185    0.1286   57.1724 H       1  ZINC000742270208    0.1500
@<TRIPOS>BOND
     1     1     2    1
     2     1    26    1
     3     1    27    1
     4     1    28    1
     5     2     3    1
     6     2     4    1
     7     2    29    1
     8     3    30    1
     9     3    31    1
    10     3    32    1
    11     4     5    2
    12     4     6    1
    13     6    25   ar
    14     6     7   ar
    15     7     8   ar
    16     7    33    1
    17     8     9   ar
    18     8    34    1
    19     9    10    1
    20     9    24   ar
    21    10    11    2
    22    10    12    2
    23    10    13    1
    24    13    14    1
    25    14    22   ar
    26    14    15   ar
    27    15    16    1
    28    15    17   ar
    29    17    18    1
    30    17    19   ar
    31    19    20   ar
    32    19    35    1
    33    20    21    1
    34    20    22   ar
    35    22    23    1
    36    24    25   ar
    37    24    36    1
    38    25    37    1
@<TRIPOS>SUBSTRUCTURE
     1 ZINC000742270208        1 TEMP              0 ****  ****    0 ROOT


##########                                Name:    ZINC000928803822
##########                DOCK_Rotatable_Bonds:                   7
##########                         Heavy_Atoms:                  21
##########                    Molecular_Weight:             364.165
##########                DOCK_Rotatable_Bonds:                   7
##########                       Formal_Charge:         -0.00999978
##########                     HBond_Acceptors:                   7
##########                        HBond_Donors:                   1
##########                         Heavy_Atoms:                  21
##########                          Grid_Score:          -25.089882
##########                     Grid_vdw_energy:          -24.369051
##########                      Grid_es_energy:           -0.720832
##########           Internal_energy_repulsive:            7.716849

@<TRIPOS>MOLECULE
ZINC000928803822
 34 34 1 0 0
SMALL
USER_CHARGES


@<TRIPOS>ATOM
      1 C1        -14.7514   -0.0891   59.4457 C.3     1  ZINC000928803822    0.0900
      2 N2        -14.1350   -1.2826   60.0304 N.pl3   1  ZINC000928803822   -0.6300
      3 C3        -14.9710   -2.2952   60.6799 C.3     1  ZINC000928803822    0.0900
      4 C4        -12.7500   -1.4549   59.9686 C.ar    1  ZINC000928803822    0.2200
      5 C5        -12.2078   -2.4338   59.1446 C.ar    1  ZINC000928803822   -0.1500
      6 C6        -10.8370   -2.6084   59.0800 C.ar    1  ZINC000928803822   -0.0500
      7 Br7       -10.1088   -3.9427   57.9553 Br      1  ZINC000928803822   -0.0400
      8 C8         -9.9990   -1.8110   59.8339 C.ar    1  ZINC000928803822   -0.1200
      9 C9        -10.5343   -0.8250   60.6645 C.ar    1  ZINC000928803822   -0.0800
     10 C10        -9.6391    0.0302   61.4728 C.2     1  ZINC000928803822    0.5700
     11 O11        -8.4775   -0.2889   61.6359 O.2     1  ZINC000928803822   -0.5100
     12 N12       -10.1109    1.1637   62.0289 N.am    1  ZINC000928803822   -0.7200
     13 C13        -9.2244    2.0102   62.8312 C.3     1  ZINC000928803822    0.1100
     14 H14        -8.1873    1.8032   62.5670 H       1  ZINC000928803822    0.1400
     15 C15        -9.4415    1.7126   64.3162 C.3     1  ZINC000928803822   -0.0300
     16 C16        -8.8921    0.3850   64.6361 C.1     1  ZINC000928803822    0.2000
     17 N17        -8.4682   -0.6396   64.8830 N.1     1  ZINC000928803822   -0.4000
     18 C18        -9.5371    3.4821   62.5550 C.3     1  ZINC000928803822    0.4400
     19 F19       -10.8644    3.7507   62.9059 F       1  ZINC000928803822   -0.1800
     20 F20        -8.6819    4.2905   63.3116 F       1  ZINC000928803822   -0.1700
     21 F21        -9.3508    3.7511   61.1948 F       1  ZINC000928803822   -0.1600
     22 C22       -11.9160   -0.6454   60.7252 C.ar    1  ZINC000928803822   -0.1200
     23 H23       -14.8030    0.6986   60.1974 H       1  ZINC000928803822    0.0600
     24 H24       -14.1522    0.2529   58.6017 H       1  ZINC000928803822    0.0700
     25 H25       -15.7575   -0.3307   59.1028 H       1  ZINC000928803822    0.0700
     26 H26       -15.2795   -3.0380   59.9442 H       1  ZINC000928803822    0.0500
     27 H27       -14.4021   -2.7826   61.4718 H       1  ZINC000928803822    0.0700
     28 H28       -15.8533   -1.8186   61.1069 H       1  ZINC000928803822    0.0700
     29 H29       -12.8587   -3.0606   58.5531 H       1  ZINC000928803822    0.1400
     30 H30        -8.9293   -1.9504   59.7811 H       1  ZINC000928803822    0.1300
     31 H31       -11.0375    1.4189   61.8978 H       1  ZINC000928803822    0.4100
     32 H32        -8.9358    2.4693   64.9161 H       1  ZINC000928803822    0.1400
     33 H33       -10.5088    1.7272   64.5374 H       1  ZINC000928803822    0.1300
     34 H34       -12.3356    0.1158   61.3661 H       1  ZINC000928803822    0.1500
@<TRIPOS>BOND
     1     1     2    1
     2     1    23    1
     3     1    24    1
     4     1    25    1
     5     2     3    1
     6     2     4    1
     7     3    26    1
     8     3    27    1
     9     3    28    1
    10     4    22   ar
    11     4     5   ar
    12     5     6   ar
    13     5    29    1
    14     6     7    1
    15     6     8   ar
    16     8     9   ar
    17     8    30    1
    18     9    10    1
    19     9    22   ar
    20    10    11    2
    21    10    12   am
    22    12    13    1
    23    12    31    1
    24    13    14    1
    25    13    15    1
    26    13    18    1
    27    15    16    1
    28    15    32    1
    29    15    33    1
    30    16    17    3
    31    18    19    1
    32    18    20    1
    33    18    21    1
    34    22    34    1
@<TRIPOS>SUBSTRUCTURE
     1 ZINC000928803822        1 TEMP              0 ****  ****    0 ROOT


##########                                Name:    ZINC001625935330
##########                DOCK_Rotatable_Bonds:                   5
##########                         Heavy_Atoms:                  25
##########                    Molecular_Weight:             327.385
##########                DOCK_Rotatable_Bonds:                   5
##########                       Formal_Charge:           0.0199995
##########                     HBond_Acceptors:                   4
##########                        HBond_Donors:                   1
##########                         Heavy_Atoms:                  25
##########                          Grid_Score:          -24.994963
##########                     Grid_vdw_energy:          -24.530325
##########                      Grid_es_energy:           -0.464637
##########           Internal_energy_repulsive:           10.962523

@<TRIPOS>MOLECULE
ZINC001625935330
 42 44 1 0 0
SMALL
USER_CHARGES


@<TRIPOS>ATOM
      1 C1         -8.4020    3.6595   56.0106 C.3     1  ZINC001625935330   -0.1600
      2 C2         -7.5120    2.4216   55.8806 C.3     1  ZINC001625935330    0.1800
      3 H3         -6.9550    2.2759   56.8061 H       1  ZINC001625935330    0.1000
      4 N4         -8.3463    1.2454   55.6224 N.am    1  ZINC001625935330   -0.7100
      5 C5         -8.8941    0.5687   56.6512 C.2     1  ZINC001625935330    0.5800
      6 O6         -8.6948    0.9333   57.7931 O.2     1  ZINC001625935330   -0.5300
      7 C7         -9.7394   -0.6199   56.3900 C.ar    1  ZINC001625935330    0.0800
      8 C8        -10.7705   -0.9376   57.2673 C.ar    1  ZINC001625935330   -0.1000
      9 C9        -11.5584   -2.0619   57.0055 C.ar    1  ZINC001625935330    0.0000
     10 C10       -12.6700   -2.4404   57.9124 C.ar    1  ZINC001625935330   -0.0600
     11 C11       -13.6905   -3.2734   57.4580 C.ar    1  ZINC001625935330   -0.1000
     12 C12       -14.7218   -3.6227   58.3061 C.ar    1  ZINC001625935330   -0.1200
     13 C13       -14.7436   -3.1475   59.6050 C.ar    1  ZINC001625935330   -0.1100
     14 C14       -13.7331   -2.3203   60.0614 C.ar    1  ZINC001625935330   -0.1200
     15 C15       -12.6943   -1.9689   59.2235 C.ar    1  ZINC001625935330   -0.1000
     16 C16       -11.2721   -2.8196   55.8674 C.ar    1  ZINC001625935330   -0.1400
     17 C17       -10.2278   -2.4351   55.0453 C.ar    1  ZINC001625935330    0.1100
     18 N18        -9.5082   -1.3680   55.3173 N.ar    1  ZINC001625935330   -0.4600
     19 C19        -6.5477    2.6139   54.7387 C.ar    1  ZINC001625935330   -0.0900
     20 C20        -6.8725    2.1520   53.4758 C.ar    1  ZINC001625935330   -0.0800
     21 C21        -5.9928    2.3244   52.4216 C.ar    1  ZINC001625935330   -0.1100
     22 C22        -4.7851    2.9591   52.6237 C.ar    1  ZINC001625935330   -0.0700
     23 C23        -4.4510    3.4283   53.8959 C.ar    1  ZINC001625935330   -0.0200
     24 C24        -3.1988    4.0884   54.1132 C.1     1  ZINC001625935330    0.2500
     25 N25        -2.2055    4.6121   54.2855 N.1     1  ZINC001625935330   -0.4100
     26 C26        -5.3453    3.2554   54.9540 C.ar    1  ZINC001625935330   -0.0600
     27 H27        -7.7812    4.5346   56.2027 H       1  ZINC001625935330    0.0700
     28 H28        -8.9590    3.8052   55.0851 H       1  ZINC001625935330    0.0600
     29 H29        -9.0995    3.5204   56.8365 H       1  ZINC001625935330    0.0700
     30 H30        -8.5046    0.9536   54.7110 H       1  ZINC001625935330    0.4100
     31 H31       -10.9592   -0.3257   58.1369 H       1  ZINC001625935330    0.1500
     32 H32       -13.6747   -3.6446   56.4439 H       1  ZINC001625935330    0.1300
     33 H33       -15.5134   -4.2679   57.9549 H       1  ZINC001625935330    0.1300
     34 H34       -15.5527   -3.4230   60.2652 H       1  ZINC001625935330    0.1300
     35 H35       -13.7553   -1.9519   61.0763 H       1  ZINC001625935330    0.1300
     36 H36       -11.9057   -1.3233   59.5810 H       1  ZINC001625935330    0.1300
     37 H37       -11.8586   -3.6954   55.6323 H       1  ZINC001625935330    0.1400
     38 H38       -10.0023   -3.0180   54.1644 H       1  ZINC001625935330    0.1700
     39 H39        -7.8168    1.6542   53.3120 H       1  ZINC001625935330    0.1300
     40 H40        -6.2523    1.9607   51.4384 H       1  ZINC001625935330    0.1400
     41 H41        -4.0992    3.0927   51.8002 H       1  ZINC001625935330    0.1400
     42 H42        -5.0930    3.6158   55.9403 H       1  ZINC001625935330    0.1400
@<TRIPOS>BOND
     1     1     2    1
     2     1    27    1
     3     1    28    1
     4     1    29    1
     5     2     3    1
     6     2     4    1
     7     2    19    1
     8     4     5   am
     9     4    30    1
    10     5     6    2
    11     5     7    1
    12     7    18   ar
    13     7     8   ar
    14     8     9   ar
    15     8    31    1
    16     9    10    1
    17     9    16   ar
    18    10    15   ar
    19    10    11   ar
    20    11    12   ar
    21    11    32    1
    22    12    13   ar
    23    12    33    1
    24    13    14   ar
    25    13    34    1
    26    14    15   ar
    27    14    35    1
    28    15    36    1
    29    16    17   ar
    30    16    37    1
    31    17    18   ar
    32    17    38    1
    33    19    26   ar
    34    19    20   ar
    35    20    21   ar
    36    20    39    1
    37    21    22   ar
    38    21    40    1
    39    22    23   ar
    40    22    41    1
    41    23    24    1
    42    23    26   ar
    43    24    25    3
    44    26    42    1
@<TRIPOS>SUBSTRUCTURE
     1 ZINC001625935330        1 TEMP              0 ****  ****    0 ROOT


##########                                Name:    ZINC001060620810
##########                DOCK_Rotatable_Bonds:                   5
##########                         Heavy_Atoms:                  24
##########                    Molecular_Weight:             332.421
##########                DOCK_Rotatable_Bonds:                   5
##########                       Formal_Charge:           0.0299998
##########                     HBond_Acceptors:                   6
##########                        HBond_Donors:                   2
##########                         Heavy_Atoms:                  24
##########                          Grid_Score:          -24.990465
##########                     Grid_vdw_energy:          -24.346338
##########                      Grid_es_energy:           -0.644126
##########           Internal_energy_repulsive:           14.313577

@<TRIPOS>MOLECULE
ZINC001060620810
 49 52 1 0 0
SMALL
USER_CHARGES


@<TRIPOS>ATOM
      1 O1        -10.3228    1.3966   54.4824 O.2     1  ZINC001060620810   -0.5400
      2 C2         -9.1792    1.2303   54.8507 C.2     1  ZINC001060620810    0.5500
      3 N3         -8.9328    0.6682   56.0506 N.am    1  ZINC001060620810   -0.7200
      4 C4        -10.0461    0.2564   56.9092 C.3     1  ZINC001060620810    0.1400
      5 C5         -9.8411   -1.1945   57.3493 C.3     1  ZINC001060620810   -0.1300
      6 C6        -11.0037   -1.6246   58.2460 C.3     1  ZINC001060620810   -0.1300
      7 C7        -11.0583   -0.7204   59.4791 C.3     1  ZINC001060620810    0.1600
      8 N8         -9.8011   -0.8323   60.2226 N.pl3   1  ZINC001060620810   -0.6900
      9 C9         -9.6834   -0.2533   61.4757 C.ar    1  ZINC001060620810    0.5600
     10 N10        -8.5840   -0.4638   62.1838 N.ar    1  ZINC001060620810   -0.5400
     11 C11        -8.4367    0.0777   63.3819 C.ar    1  ZINC001060620810    0.1700
     12 C12        -9.4561    0.8653   63.8981 C.ar    1  ZINC001060620810   -0.0700
     13 F13        -9.3413    1.4299   65.1202 F       1  ZINC001060620810   -0.1300
     14 C14       -10.5959    1.0603   63.1308 C.ar    1  ZINC001060620810    0.1800
     15 N15       -10.6752    0.4928   61.9383 N.ar    1  ZINC001060620810   -0.5500
     16 C16       -11.2634    0.7305   59.0390 C.3     1  ZINC001060620810   -0.1200
     17 C17       -10.1006    1.1605   58.1423 C.3     1  ZINC001060620810   -0.1300
     18 C18        -8.0340    1.6523   53.9667 C.3     1  ZINC001060620810   -0.1500
     19 C19        -6.8006    2.1848   54.6842 C.3     1  ZINC001060620810   -0.1500
     20 C20        -7.7186    3.1398   53.9519 C.3     1  ZINC001060620810   -0.1100
     21 H21        -8.3310    3.7862   54.5803 H       1  ZINC001060620810    0.1100
     22 C22        -7.1802    3.8076   52.6905 C.3     1  ZINC001060620810   -0.0900
     23 C23        -7.4763    2.9476   51.4618 C.3     1  ZINC001060620810   -0.1200
     24 C24        -6.9415    1.5334   51.7148 C.3     1  ZINC001060620810   -0.1200
     25 C25        -7.8749    0.8281   52.6987 C.3     1  ZINC001060620810   -0.0800
     26 H26        -8.0182    0.5364   56.3457 H       1  ZINC001060620810    0.4000
     27 H27       -10.9816    0.3396   56.3560 H       1  ZINC001060620810    0.0900
     28 H28        -9.8022   -1.8387   56.4709 H       1  ZINC001060620810    0.0700
     29 H29        -8.9056   -1.2777   57.9025 H       1  ZINC001060620810    0.0600
     30 H30       -10.8577   -2.6583   58.5595 H       1  ZINC001060620810    0.0700
     31 H31       -11.9392   -1.5414   57.6927 H       1  ZINC001060620810    0.0800
     32 H32       -11.8867   -1.0269   60.1179 H       1  ZINC001060620810    0.1000
     33 H33        -9.0509   -1.3118   59.8375 H       1  ZINC001060620810    0.4100
     34 H34        -7.5364   -0.0947   63.9529 H       1  ZINC001060620810    0.1800
     35 H35       -11.4081    1.6672   63.5026 H       1  ZINC001060620810    0.1800
     36 H36       -11.3023    1.3745   59.9174 H       1  ZINC001060620810    0.0800
     37 H37       -12.1988    0.8135   58.4858 H       1  ZINC001060620810    0.0900
     38 H38        -9.1652    1.0773   58.6955 H       1  ZINC001060620810    0.0700
     39 H39       -10.2467    2.1942   57.8287 H       1  ZINC001060620810    0.0800
     40 H40        -6.8233    2.2110   55.7736 H       1  ZINC001060620810    0.1000
     41 H41        -5.8283    1.9752   54.2381 H       1  ZINC001060620810    0.1100
     42 H42        -6.1018    3.9246   52.7981 H       1  ZINC001060620810    0.0700
     43 H43        -7.6391    4.7883   52.5644 H       1  ZINC001060620810    0.0700
     44 H44        -6.9832    3.3747   50.5886 H       1  ZINC001060620810    0.0700
     45 H45        -8.5527    2.9072   51.2942 H       1  ZINC001060620810    0.0700
     46 H46        -5.9391    1.5918   52.1391 H       1  ZINC001060620810    0.0700
     47 H47        -6.9128    0.9797   50.7764 H       1  ZINC001060620810    0.0700
     48 H48        -7.4591   -0.1469   52.9532 H       1  ZINC001060620810    0.0700
     49 H49        -8.8511    0.6922   52.2331 H       1  ZINC001060620810    0.0700
@<TRIPOS>BOND
     1     1     2    2
     2     2     3   am
     3     2    18    1
     4     3     4    1
     5     3    26    1
     6     4    17    1
     7     4     5    1
     8     4    27    1
     9     5     6    1
    10     5    28    1
    11     5    29    1
    12     6     7    1
    13     6    30    1
    14     6    31    1
    15     7     8    1
    16     7    16    1
    17     7    32    1
    18     8     9    1
    19     8    33    1
    20     9    15   ar
    21     9    10   ar
    22    10    11   ar
    23    11    12   ar
    24    11    34    1
    25    12    13    1
    26    12    14   ar
    27    14    15   ar
    28    14    35    1
    29    16    17    1
    30    16    36    1
    31    16    37    1
    32    17    38    1
    33    17    39    1
    34    18    20    1
    35    18    25    1
    36    18    19    1
    37    19    20    1
    38    19    40    1
    39    19    41    1
    40    20    21    1
    41    20    22    1
    42    22    23    1
    43    22    42    1
    44    22    43    1
    45    23    24    1
    46    23    44    1
    47    23    45    1
    48    24    25    1
    49    24    46    1
    50    24    47    1
    51    25    48    1
    52    25    49    1
@<TRIPOS>SUBSTRUCTURE
     1 ZINC001060620810        1 TEMP              0 ****  ****    0 ROOT


##########                                Name:    ZINC000616491533
##########                DOCK_Rotatable_Bonds:                   4
##########                         Heavy_Atoms:                  27
##########                    Molecular_Weight:             375.418
##########                DOCK_Rotatable_Bonds:                   4
##########                       Formal_Charge:           0.0299996
##########                     HBond_Acceptors:                   7
##########                        HBond_Donors:                   0
##########                         Heavy_Atoms:                  27
##########                          Grid_Score:          -24.977732
##########                     Grid_vdw_energy:          -25.122196
##########                      Grid_es_energy:            0.144464
##########           Internal_energy_repulsive:           15.043911

@<TRIPOS>MOLECULE
ZINC000616491533
 50 53 1 0 0
SMALL
USER_CHARGES


@<TRIPOS>ATOM
      1 C1        -15.1846    1.1489   61.0925 C.3     1  ZINC000616491533   -0.1700
      2 C2        -14.5325   -0.1878   61.4512 C.3     1  ZINC000616491533    0.1400
      3 H3        -14.4986   -0.3048   62.5344 H       1  ZINC000616491533    0.0800
      4 C4        -15.3343   -1.3489   60.8224 C.3     1  ZINC000616491533   -0.1200
      5 C5        -14.5363   -1.6625   59.5397 C.3     1  ZINC000616491533   -0.0700
      6 C6        -13.0829   -1.3952   59.9754 C.3     1  ZINC000616491533    0.0900
      7 N7        -13.1703   -0.2437   60.8993 N.am    1  ZINC000616491533   -0.6100
      8 C8        -12.1688    0.6120   61.1841 C.2     1  ZINC000616491533    0.6100
      9 O9        -12.3552    1.5296   61.9602 O.2     1  ZINC000616491533   -0.5200
     10 C10       -10.8474    0.4359   60.5549 C.2     1  ZINC000616491533   -0.2400
     11 C11       -10.4874    0.8282   59.2811 C.2     1  ZINC000616491533    0.0700
     12 C12       -11.3738    1.5163   58.2753 C.3     1  ZINC000616491533    0.3400
     13 F13       -12.5492    1.9419   58.9035 F       1  ZINC000616491533   -0.1900
     14 F14       -10.7032    2.6223   57.7422 F       1  ZINC000616491533   -0.1600
     15 N15        -9.1991    0.4834   59.1034 N.pl3   1  ZINC000616491533   -0.2900
     16 C16        -8.4447    0.7032   57.9428 C.ar    1  ZINC000616491533    0.1300
     17 C17        -8.9242    0.2790   56.7107 C.ar    1  ZINC000616491533   -0.1000
     18 C18        -8.1786    0.4971   55.5688 C.ar    1  ZINC000616491533   -0.1000
     19 C19        -6.9554    1.1368   55.6517 C.ar    1  ZINC000616491533   -0.1000
     20 C20        -6.4752    1.5603   56.8773 C.ar    1  ZINC000616491533   -0.1000
     21 C21        -7.2190    1.3508   58.0220 C.ar    1  ZINC000616491533   -0.0900
     22 N22        -8.7397   -0.1319   60.2732 N.2     1  ZINC000616491533   -0.2600
     23 C23        -9.7101   -0.1607   61.1450 C.2     1  ZINC000616491533    0.0700
     24 C24       -14.7188   -3.1185   59.1362 C.3     1  ZINC000616491533   -0.1400
     25 C25       -13.9512   -3.3826   57.8362 C.3     1  ZINC000616491533    0.0600
     26 O26       -14.3965   -2.4691   56.8313 O.3     1  ZINC000616491533   -0.3800
     27 C27       -14.1653   -1.0937   57.1435 C.3     1  ZINC000616491533    0.0600
     28 C28       -14.9424   -0.7248   58.4121 C.3     1  ZINC000616491533   -0.1500
     29 H29       -15.2039    1.2646   60.0089 H       1  ZINC000616491533    0.0600
     30 H30       -16.2037    1.1711   61.4785 H       1  ZINC000616491533    0.0600
     31 H31       -14.6108    1.9633   61.5349 H       1  ZINC000616491533    0.0800
     32 H32       -15.3500   -2.2120   61.4880 H       1  ZINC000616491533    0.0800
     33 H33       -16.3477   -1.0302   60.5781 H       1  ZINC000616491533    0.0900
     34 H34       -12.6754   -2.2643   60.4917 H       1  ZINC000616491533    0.0800
     35 H35       -12.4679   -1.1430   59.1114 H       1  ZINC000616491533    0.0800
     36 H36       -11.6219    0.8207   57.4736 H       1  ZINC000616491533    0.1400
     37 H37        -9.8791   -0.2213   56.6454 H       1  ZINC000616491533    0.1300
     38 H38        -8.5510    0.1674   54.6101 H       1  ZINC000616491533    0.1400
     39 H39        -6.3738    1.3055   54.7575 H       1  ZINC000616491533    0.1300
     40 H40        -5.5195    2.0597   56.9389 H       1  ZINC000616491533    0.1400
     41 H41        -6.8435    1.6818   58.9790 H       1  ZINC000616491533    0.1300
     42 H42        -9.6556   -0.5738   62.1413 H       1  ZINC000616491533    0.2100
     43 H43       -14.3337   -3.7656   59.9242 H       1  ZINC000616491533    0.0800
     44 H44       -15.7782   -3.3233   58.9814 H       1  ZINC000616491533    0.0800
     45 H45       -12.8841   -3.2421   58.0086 H       1  ZINC000616491533    0.0500
     46 H46       -14.1354   -4.4049   57.5060 H       1  ZINC000616491533    0.1000
     47 H47       -13.1001   -0.9324   57.3095 H       1  ZINC000616491533    0.0500
     48 H48       -14.5035   -0.4708   56.3155 H       1  ZINC000616491533    0.1000
     49 H49       -16.0118   -0.8222   58.2250 H       1  ZINC000616491533    0.0800
     50 H50       -14.7135    0.3031   58.6932 H       1  ZINC000616491533    0.0800
@<TRIPOS>BOND
     1     1     2    1
     2     1    29    1
     3     1    30    1
     4     1    31    1
     5     2     3    1
     6     2     7    1
     7     2     4    1
     8     4     5    1
     9     4    32    1
    10     4    33    1
    11     5    28    1
    12     5     6    1
    13     5    24    1
    14     6     7    1
    15     6    34    1
    16     6    35    1
    17     7     8   am
    18     8     9    2
    19     8    10    1
    20    10    23    1
    21    10    11    2
    22    11    12    1
    23    11    15    1
    24    12    13    1
    25    12    14    1
    26    12    36    1
    27    15    16    1
    28    15    22    1
    29    16    21   ar
    30    16    17   ar
    31    17    18   ar
    32    17    37    1
    33    18    19   ar
    34    18    38    1
    35    19    20   ar
    36    19    39    1
    37    20    21   ar
    38    20    40    1
    39    21    41    1
    40    22    23    2
    41    23    42    1
    42    24    25    1
    43    24    43    1
    44    24    44    1
    45    25    26    1
    46    25    45    1
    47    25    46    1
    48    26    27    1
    49    27    28    1
    50    27    47    1
    51    27    48    1
    52    28    49    1
    53    28    50    1
@<TRIPOS>SUBSTRUCTURE
     1 ZINC000616491533        1 TEMP              0 ****  ****    0 ROOT


##########                                Name:    ZINC000623581528
##########                DOCK_Rotatable_Bonds:                   5
##########                         Heavy_Atoms:                  26
##########                    Molecular_Weight:             355.369
##########                DOCK_Rotatable_Bonds:                   5
##########                       Formal_Charge:        -4.47035e-07
##########                     HBond_Acceptors:                   7
##########                        HBond_Donors:                   2
##########                         Heavy_Atoms:                  26
##########                          Grid_Score:          -24.963366
##########                     Grid_vdw_energy:          -25.227953
##########                      Grid_es_energy:            0.264587
##########           Internal_energy_repulsive:           33.946590

@<TRIPOS>MOLECULE
ZINC000623581528
 44 47 1 0 0
SMALL
USER_CHARGES


@<TRIPOS>ATOM
      1 C1         -6.0603    3.7067   54.3245 C.3     1  ZINC000623581528    0.1000
      2 N2         -6.2852    2.6075   53.3824 N.am    1  ZINC000623581528   -0.5500
      3 C3         -5.6123    2.3910   52.2349 C.2     1  ZINC000623581528    0.6300
      4 O4         -4.7093    3.0849   51.8089 O.2     1  ZINC000623581528   -0.4800
      5 O5         -6.0935    1.2907   51.6352 O.3     1  ZINC000623581528   -0.2300
      6 C6         -7.0931    0.7730   52.3902 C.ar    1  ZINC000623581528    0.0400
      7 C7         -7.9147   -0.3329   52.2409 C.ar    1  ZINC000623581528   -0.0800
      8 C8         -8.8687   -0.6170   53.1991 C.ar    1  ZINC000623581528   -0.0900
      9 C9         -9.0088    0.1982   54.3083 C.ar    1  ZINC000623581528   -0.0900
     10 C10       -10.0524   -0.1201   55.3479 C.3     1  ZINC000623581528    0.1800
     11 N11        -9.4604   -0.9586   56.3932 N.am    1  ZINC000623581528   -0.7400
     12 C12       -10.0396   -1.0302   57.6081 C.2     1  ZINC000623581528    0.7100
     13 O13       -11.0525   -0.3977   57.8370 O.2     1  ZINC000623581528   -0.5800
     14 N14        -9.4959   -1.8028   58.5693 N.am    1  ZINC000623581528   -0.7300
     15 C15       -10.1265   -1.8821   59.8893 C.3     1  ZINC000623581528    0.2000
     16 H16        -9.3968   -2.1892   60.6385 H       1  ZINC000623581528    0.1000
     17 C17       -11.3110   -2.8712   59.8585 C.3     1  ZINC000623581528   -0.1300
     18 C18       -12.5059   -1.9473   59.5409 C.3     1  ZINC000623581528   -0.0800
     19 C19       -12.1024   -0.5844   60.0616 C.ar    1  ZINC000623581528   -0.1000
     20 C20       -12.8712    0.5337   60.3380 C.ar    1  ZINC000623581528   -0.0800
     21 C21       -12.2772    1.6862   60.8134 C.ar    1  ZINC000623581528   -0.1400
     22 C22       -10.9080    1.7248   61.0143 C.ar    1  ZINC000623581528    0.0900
     23 F23       -10.3238    2.8505   61.4798 F       1  ZINC000623581528   -0.1400
     24 C24       -10.1390    0.6082   60.7380 C.ar    1  ZINC000623581528   -0.1200
     25 C25       -10.7325   -0.5463   60.2629 C.ar    1  ZINC000623581528   -0.0900
     26 C26        -8.1941    1.3031   54.4658 C.ar    1  ZINC000623581528   -0.0800
     27 C27        -7.2307    1.5907   53.5122 C.ar    1  ZINC000623581528    0.0700
     28 H28        -5.3180    3.4056   55.0636 H       1  ZINC000623581528    0.0800
     29 H29        -5.6997    4.5813   53.7829 H       1  ZINC000623581528    0.0900
     30 H30        -6.9958    3.9511   54.8277 H       1  ZINC000623581528    0.0900
     31 H31        -7.8097   -0.9716   51.3765 H       1  ZINC000623581528    0.1500
     32 H32        -9.5085   -1.4791   53.0815 H       1  ZINC000623581528    0.1500
     33 H33       -10.4196    0.8062   55.7895 H       1  ZINC000623581528    0.0800
     34 H34       -10.8804   -0.6530   54.8801 H       1  ZINC000623581528    0.0800
     35 H35        -8.6517   -1.4622   56.2110 H       1  ZINC000623581528    0.4000
     36 H36        -8.6872   -2.3064   58.3872 H       1  ZINC000623581528    0.4000
     37 H37       -11.1755   -3.6135   59.0720 H       1  ZINC000623581528    0.0900
     38 H38       -11.4398   -3.3516   60.8283 H       1  ZINC000623581528    0.0900
     39 H39       -12.6765   -1.9059   58.4651 H       1  ZINC000623581528    0.0800
     40 H40       -13.4017   -2.2980   60.0533 H       1  ZINC000623581528    0.0800
     41 H41       -13.9394    0.5042   60.1815 H       1  ZINC000623581528    0.1300
     42 H42       -12.8799    2.5563   61.0279 H       1  ZINC000623581528    0.1400
     43 H43        -9.0708    0.6379   60.8945 H       1  ZINC000623581528    0.1400
     44 H44        -8.3048    1.9383   55.3322 H       1  ZINC000623581528    0.1400
@<TRIPOS>BOND
     1     1     2    1
     2     1    28    1
     3     1    29    1
     4     1    30    1
     5     2    27    1
     6     2     3   am
     7     3     4    2
     8     3     5    1
     9     5     6    1
    10     6    27   ar
    11     6     7   ar
    12     7     8   ar
    13     7    31    1
    14     8     9   ar
    15     8    32    1
    16     9    10    1
    17     9    26   ar
    18    10    11    1
    19    10    33    1
    20    10    34    1
    21    11    12   am
    22    11    35    1
    23    12    13    2
    24    12    14   am
    25    14    15    1
    26    14    36    1
    27    15    16    1
    28    15    25    1
    29    15    17    1
    30    17    18    1
    31    17    37    1
    32    17    38    1
    33    18    19    1
    34    18    39    1
    35    18    40    1
    36    19    25   ar
    37    19    20   ar
    38    20    21   ar
    39    20    41    1
    40    21    22   ar
    41    21    42    1
    42    22    23    1
    43    22    24   ar
    44    24    25   ar
    45    24    43    1
    46    26    27   ar
    47    26    44    1
@<TRIPOS>SUBSTRUCTURE
     1 ZINC000623581528        1 TEMP              0 ****  ****    0 ROOT


##########                                Name:    ZINC000012979878
##########                DOCK_Rotatable_Bonds:                   7
##########                         Heavy_Atoms:                  26
##########                    Molecular_Weight:             388.874
##########                DOCK_Rotatable_Bonds:                   7
##########                       Formal_Charge:          -0.0100003
##########                     HBond_Acceptors:                   7
##########                        HBond_Donors:                   1
##########                         Heavy_Atoms:                  26
##########                          Grid_Score:          -24.894093
##########                     Grid_vdw_energy:          -24.193533
##########                      Grid_es_energy:           -0.700560
##########           Internal_energy_repulsive:          168.534241

@<TRIPOS>MOLECULE
ZINC000012979878
 43 45 1 0 0
SMALL
USER_CHARGES


@<TRIPOS>ATOM
      1 C1          3.2391    3.9596   52.0517 C.3     1  <0>         0.0300
      2 O2          1.9227    3.4166   52.1720 O.3     1  <0>        -0.3100
      3 C3          1.1496    3.8914   53.1837 C.ar    1  <0>         0.1500
      4 C4          1.6489    4.8595   54.0435 C.ar    1  <0>        -0.2200
      5 C5          0.8640    5.3431   55.0733 C.ar    1  <0>        -0.0600
      6 C6         -0.4196    4.8650   55.2498 C.ar    1  <0>        -0.1800
      7 C7         -0.9249    3.8956   54.3919 C.ar    1  <0>         0.1800
      8 N8         -2.2246    3.4115   54.5706 N.am    1  <0>        -0.6700
      9 C9         -2.9881    3.8855   55.5751 C.2     1  <0>         0.6000
     10 O10        -2.5464    4.7348   56.3265 O.2     1  <0>        -0.4900
     11 C11        -4.3511    3.3779   55.7625 C.2     1  <0>        -0.3000
     12 C12        -5.3068    3.2792   54.8044 C.2     1  <0>         0.1600
     13 C13        -5.0780    3.6944   53.3739 C.3     1  <0>        -0.0900
     14 N14        -6.4448    2.7911   55.2302 N.2     1  <0>        -0.4500
     15 C15        -6.5231    2.4688   56.4812 C.2     1  <0>         0.0600
     16 C16        -7.7474    1.8948   57.1466 C.3     1  <0>         0.1300
     17 O17        -7.4565    0.5809   57.6273 O.3     1  <0>        -0.3000
     18 C18        -8.5132   -0.1857   58.0057 C.ar    1  <0>         0.1300
     19 C19        -8.5665   -0.7103   59.2887 C.ar    1  <0>        -0.2000
     20 C20        -9.6413   -1.4893   59.6715 C.ar    1  <0>        -0.0700
     21 C21       -10.6641   -1.7466   58.7758 C.ar    1  <0>        -0.0700
     22 Cl22      -12.0134   -2.7262   59.2588 Cl      1  <0>        -0.0700
     23 C23       -10.6129   -1.2238   57.4957 C.ar    1  <0>        -0.0700
     24 C24        -9.5426   -0.4397   57.1111 C.ar    1  <0>        -0.1300
     25 S25        -5.0389    2.7796   57.2705 S.3     1  <0>         0.2000
     26 C26        -0.1403    3.4131   53.3541 C.ar    1  <0>        -0.1500
     27 H27         3.1749    5.0357   51.8910 H       1  <0>         0.0600
     28 H28         3.7988    3.7613   52.9657 H       1  <0>         0.0600
     29 H29         3.7477    3.4956   51.2065 H       1  <0>         0.1000
     30 H30         2.6524    5.2352   53.9080 H       1  <0>         0.1300
     31 H31         1.2554    6.0959   55.7414 H       1  <0>         0.1300
     32 H32        -1.0309    5.2445   56.0552 H       1  <0>         0.1300
     33 H33        -2.5767    2.7346   53.9718 H       1  <0>         0.4100
     34 H34        -4.7003    2.8447   52.8050 H       1  <0>         0.0900
     35 H35        -6.0184    4.0334   52.9391 H       1  <0>         0.0800
     36 H36        -4.3501    4.5050   53.3428 H       1  <0>         0.1000
     37 H37        -8.0388    2.5312   57.9822 H       1  <0>         0.0900
     38 H38        -8.5634    1.8456   56.4255 H       1  <0>         0.1000
     39 H39        -7.7680   -0.5103   59.9879 H       1  <0>         0.1400
     40 H40        -9.6831   -1.8979   60.6703 H       1  <0>         0.1400
     41 H41       -11.4124   -1.4255   56.7981 H       1  <0>         0.1400
     42 H42        -9.5030   -0.0319   56.1119 H       1  <0>         0.1400
     43 H43        -0.5307    2.6600   52.6856 H       1  <0>         0.1400
@<TRIPOS>BOND
     1     1     2    1
     2     1    27    1
     3     1    28    1
     4     1    29    1
     5     2     3    1
     6     3    26   ar
     7     3     4   ar
     8     4     5   ar
     9     4    30    1
    10     5     6   ar
    11     5    31    1
    12     6     7   ar
    13     6    32    1
    14     7     8    1
    15     7    26   ar
    16     8     9   am
    17     8    33    1
    18     9    10    2
    19     9    11    1
    20    11    25    1
    21    11    12    2
    22    12    13    1
    23    12    14    1
    24    13    34    1
    25    13    35    1
    26    13    36    1
    27    14    15    2
    28    15    16    1
    29    15    25    1
    30    16    17    1
    31    16    37    1
    32    16    38    1
    33    17    18    1
    34    18    24   ar
    35    18    19   ar
    36    19    20   ar
    37    19    39    1
    38    20    21   ar
    39    20    40    1
    40    21    22    1
    41    21    23   ar
    42    23    24   ar
    43    23    41    1
    44    24    42    1
    45    26    43    1
@<TRIPOS>SUBSTRUCTURE
     1 <0>         1 TEMP              0 ****  ****    0 ROOT


##########                                Name:    ZINC001708427409
##########                DOCK_Rotatable_Bonds:                   6
##########                         Heavy_Atoms:                  24
##########                    Molecular_Weight:             334.505
##########                DOCK_Rotatable_Bonds:                   6
##########                       Formal_Charge:          -0.0200006
##########                     HBond_Acceptors:                   5
##########                        HBond_Donors:                   1
##########                         Heavy_Atoms:                  24
##########                          Grid_Score:          -24.845081
##########                     Grid_vdw_energy:          -24.420942
##########                      Grid_es_energy:           -0.424139
##########           Internal_energy_repulsive:           18.899759

@<TRIPOS>MOLECULE
ZINC001708427409
 58 60 1 0 0
SMALL
USER_CHARGES


@<TRIPOS>ATOM
      1 C1         -8.5099   -0.4169   52.6958 C.3     1  ZINC001708427409   -0.1500
      2 C2         -7.5200    0.7492   52.6612 C.3     1  ZINC001708427409   -0.1200
      3 C3         -8.0136    1.8646   53.5847 C.3     1  ZINC001708427409    0.0000
      4 H4         -9.0001    2.1955   53.2598 H       1  ZINC001708427409    0.0800
      5 C5         -7.0374    3.0414   53.5300 C.3     1  ZINC001708427409   -0.1400
      6 C6         -8.0977    1.3469   54.9975 C.2     1  ZINC001708427409    0.1800
      7 N7         -7.0929    1.0502   55.7722 N.2     1  ZINC001708427409   -0.2800
      8 N8         -7.5217    0.6371   56.9113 N.2     1  ZINC001708427409   -0.3200
      9 C9         -8.8337    0.6482   56.9245 C.2     1  ZINC001708427409    0.3600
     10 N10        -9.6502    0.2710   57.9789 N.3     1  ZINC001708427409   -0.4200
     11 C11        -9.2671    0.9807   59.2309 C.3     1  ZINC001708427409    0.0400
     12 C12        -9.8215    0.0972   60.3699 C.3     1  ZINC001708427409   -0.0900
     13 H13       -10.7825    0.4804   60.7129 H       1  ZINC001708427409    0.0900
     14 C14        -8.8272    0.0415   61.5315 C.3     1  ZINC001708427409   -0.1500
     15 C15        -9.9962   -1.3101   59.7387 C.3     1  ZINC001708427409   -0.0800
     16 H16        -9.4361   -2.0621   60.2941 H       1  ZINC001708427409    0.0900
     17 C17       -11.4925   -1.6242   59.7470 C.3     1  ZINC001708427409   -0.1100
     18 C18       -11.7699   -2.8415   58.8653 C.3     1  ZINC001708427409   -0.1200
     19 C19       -11.4421   -2.4764   57.4191 C.3     1  ZINC001708427409   -0.1100
     20 C20        -9.9832   -2.0909   57.2818 C.3     1  ZINC001708427409   -0.1000
     21 C21        -9.4478   -1.1530   58.3228 C.3     1  ZINC001708427409    0.1000
     22 H22        -8.3701   -1.3093   58.3714 H       1  ZINC001708427409    0.0600
     23 N23        -9.2422    1.1070   55.7061 N.pl3   1  ZINC001708427409   -0.4700
     24 C24       -10.6213    1.2943   55.2485 C.3     1  ZINC001708427409    0.0800
     25 C25       -11.1505    2.6359   55.7594 C.3     1  ZINC001708427409    0.1200
     26 C26       -10.8181    3.7340   54.7471 C.3     1  ZINC001708427409   -0.1800
     27 C27       -12.6673    2.5506   55.9397 C.3     1  ZINC001708427409   -0.1500
     28 O28       -10.5382    2.9430   57.0136 O.3     1  ZINC001708427409   -0.5400
     29 H29        -9.4881   -0.0733   52.3597 H       1  ZINC001708427409    0.0600
     30 H30        -8.1582   -1.2116   52.0378 H       1  ZINC001708427409    0.0600
     31 H31        -8.5884   -0.7967   53.7144 H       1  ZINC001708427409    0.0500
     32 H32        -6.5418    0.4055   52.9973 H       1  ZINC001708427409    0.0700
     33 H33        -7.4415    1.1290   51.6426 H       1  ZINC001708427409    0.0800
     34 H34        -6.9766    3.4160   52.5082 H       1  ZINC001708427409    0.0700
     35 H35        -7.3891    3.8361   54.1880 H       1  ZINC001708427409    0.0500
     36 H36        -6.0510    2.7107   53.8551 H       1  ZINC001708427409    0.0700
     37 H37        -8.1825    1.0600   59.3057 H       1  ZINC001708427409    0.0600
     38 H38        -9.7238    1.9700   59.2614 H       1  ZINC001708427409    0.0800
     39 H39        -8.6771    1.0449   61.9297 H       1  ZINC001708427409    0.0600
     40 H40        -9.2204   -0.6056   62.3155 H       1  ZINC001708427409    0.0600
     41 H41        -7.8758   -0.3546   61.1766 H       1  ZINC001708427409    0.0600
     42 H42       -11.8130   -1.8352   60.7673 H       1  ZINC001708427409    0.0600
     43 H43       -12.0453   -0.7662   59.3645 H       1  ZINC001708427409    0.0700
     44 H44       -11.1435   -3.6747   59.1837 H       1  ZINC001708427409    0.0600
     45 H45       -12.8211   -3.1188   58.9438 H       1  ZINC001708427409    0.0600
     46 H46       -11.6493   -3.3323   56.7769 H       1  ZINC001708427409    0.0600
     47 H47       -12.0657   -1.6374   57.1104 H       1  ZINC001708427409    0.0600
     48 H48        -9.3849   -3.0014   57.3178 H       1  ZINC001708427409    0.0600
     49 H49        -9.8418   -1.6338   56.3025 H       1  ZINC001708427409    0.0700
     50 H50       -10.6471    1.2847   54.1588 H       1  ZINC001708427409    0.0900
     51 H51       -11.2447    0.4873   55.6337 H       1  ZINC001708427409    0.1000
     52 H52       -11.2852    3.4997   53.7906 H       1  ZINC001708427409    0.0700
     53 H53       -11.1950    4.6899   55.1112 H       1  ZINC001708427409    0.0700
     54 H54        -9.7375    3.7948   54.6187 H       1  ZINC001708427409    0.0600
     55 H55       -12.9088    1.7151   56.5968 H       1  ZINC001708427409    0.0700
     56 H56       -13.0335    3.4776   56.3811 H       1  ZINC001708427409    0.0700
     57 H57       -13.1406    2.3984   54.9697 H       1  ZINC001708427409    0.0700
     58 H58        -9.5813    3.0731   56.9627 H       1  ZINC001708427409    0.3800
@<TRIPOS>BOND
     1     1     2    1
     2     1    29    1
     3     1    30    1
     4     1    31    1
     5     2     3    1
     6     2    32    1
     7     2    33    1
     8     3     4    1
     9     3     5    1
    10     3     6    1
    11     5    34    1
    12     5    35    1
    13     5    36    1
    14     6    23    1
    15     6     7    2
    16     7     8    1
    17     8     9    2
    18     9    10    1
    19     9    23    1
    20    10    21    1
    21    10    11    1
    22    11    12    1
    23    11    37    1
    24    11    38    1
    25    12    13    1
    26    12    14    1
    27    12    15    1
    28    14    39    1
    29    14    40    1
    30    14    41    1
    31    15    16    1
    32    15    21    1
    33    15    17    1
    34    17    18    1
    35    17    42    1
    36    17    43    1
    37    18    19    1
    38    18    44    1
    39    18    45    1
    40    19    20    1
    41    19    46    1
    42    19    47    1
    43    20    21    1
    44    20    48    1
    45    20    49    1
    46    21    22    1
    47    23    24    1
    48    24    25    1
    49    24    50    1
    50    24    51    1
    51    25    26    1
    52    25    27    1
    53    25    28    1
    54    26    52    1
    55    26    53    1
    56    26    54    1
    57    27    55    1
    58    27    56    1
    59    27    57    1
    60    28    58    1
@<TRIPOS>SUBSTRUCTURE
     1 ZINC001708427409        1 TEMP              0 ****  ****    0 ROOT


##########                                Name:    ZINC000435292384
##########                DOCK_Rotatable_Bonds:                   6
##########                         Heavy_Atoms:                  22
##########                    Molecular_Weight:             326.503
##########                DOCK_Rotatable_Bonds:                   6
##########                       Formal_Charge:         -0.00999993
##########                     HBond_Acceptors:                   5
##########                        HBond_Donors:                   0
##########                         Heavy_Atoms:                  22
##########                          Grid_Score:          -24.839661
##########                     Grid_vdw_energy:          -25.392456
##########                      Grid_es_energy:            0.552796
##########           Internal_energy_repulsive:           24.602612

@<TRIPOS>MOLECULE
ZINC000435292384
 52 53 1 0 0
SMALL
USER_CHARGES


@<TRIPOS>ATOM
      1 C1         -7.2522    2.0021   52.8616 C.3     1  ZINC000435292384   -0.1500
      2 C2         -8.3682    0.9611   52.9694 C.3     1  ZINC000435292384   -0.1200
      3 C3         -8.6047    0.6174   54.4414 C.3     1  ZINC000435292384   -0.1400
      4 C4         -9.6240   -0.5191   54.5425 C.3     1  ZINC000435292384    0.1600
      5 H5         -9.2647   -1.3804   53.9792 H       1  ZINC000435292384    0.0900
      6 C6        -10.9634   -0.0556   53.9664 C.3     1  ZINC000435292384   -0.1700
      7 N7         -9.8002   -0.8936   55.9478 N.am    1  ZINC000435292384   -0.6100
      8 C8         -9.7723    0.0552   57.0673 C.3     1  ZINC000435292384    0.1200
      9 C9        -10.4203   -0.6900   58.2552 C.3     1  ZINC000435292384   -0.1300
     10 H10       -11.4899   -0.4865   58.3065 H       1  ZINC000435292384    0.1100
     11 C11        -9.7428   -0.3297   59.5522 C.2     1  ZINC000435292384    0.5200
     12 O12        -9.0991   -1.1642   60.1523 O.2     1  ZINC000435292384   -0.5200
     13 N13        -9.8522    0.9198   60.0452 N.am    1  ZINC000435292384   -0.6000
     14 C14       -10.6430    1.9116   59.2903 C.3     1  ZINC000435292384    0.1000
     15 C15       -11.5274    2.7712   60.2116 C.3     1  ZINC000435292384   -0.1300
     16 C16       -12.1385    1.9132   61.2919 C.3     1  ZINC000435292384   -0.1100
     17 C17       -11.2314    1.9226   62.5186 C.3     1  ZINC000435292384   -0.1200
     18 C18       -10.1434    0.9336   62.4753 C.3     1  ZINC000435292384   -0.0700
     19 H19       -10.5669   -0.0635   62.3539 H       1  ZINC000435292384    0.0900
     20 S20        -9.2068    1.0031   64.0273 S.3     1  ZINC000435292384   -0.2500
     21 C21        -8.1244   -0.4483   63.9159 C.3     1  ZINC000435292384   -0.1200
     22 C22        -9.1951    1.2319   61.2947 C.3     1  ZINC000435292384    0.1400
     23 C23       -10.1553   -2.1673   57.8832 C.3     1  ZINC000435292384   -0.1400
     24 C24       -10.0139   -2.1493   56.3771 C.2     1  ZINC000435292384    0.5200
     25 O25       -10.0768   -3.1266   55.6618 O.2     1  ZINC000435292384   -0.5200
     26 H26        -7.0837    2.2470   51.8129 H       1  ZINC000435292384    0.0500
     27 H27        -7.5418    2.9028   53.4030 H       1  ZINC000435292384    0.0500
     28 H28        -6.3358    1.5983   53.2921 H       1  ZINC000435292384    0.0500
     29 H29        -9.2846    1.3649   52.5389 H       1  ZINC000435292384    0.0600
     30 H30        -8.0786    0.0605   52.4280 H       1  ZINC000435292384    0.0600
     31 H31        -7.6652    0.3044   54.8969 H       1  ZINC000435292384    0.0800
     32 H32        -8.9864    1.4952   54.9627 H       1  ZINC000435292384    0.0800
     33 H33       -11.3226    0.8057   54.5296 H       1  ZINC000435292384    0.0700
     34 H34       -10.8323    0.2231   52.9208 H       1  ZINC000435292384    0.0700
     35 H35       -11.6896   -0.8652   54.0384 H       1  ZINC000435292384    0.0600
     36 H36        -8.7438    0.3252   57.3072 H       1  ZINC000435292384    0.0900
     37 H37       -10.3494    0.9464   56.8209 H       1  ZINC000435292384    0.0800
     38 H38        -9.9628    2.5642   58.7430 H       1  ZINC000435292384    0.0700
     39 H39       -11.2793    1.3880   58.5768 H       1  ZINC000435292384    0.0900
     40 H40       -10.9203    3.5519   60.6701 H       1  ZINC000435292384    0.0700
     41 H41       -12.3213    3.2319   59.6236 H       1  ZINC000435292384    0.0800
     42 H42       -13.1177    2.3094   61.5606 H       1  ZINC000435292384    0.0700
     43 H43       -12.2466    0.8917   60.9273 H       1  ZINC000435292384    0.0600
     44 H44       -10.7926    2.9156   62.6170 H       1  ZINC000435292384    0.0800
     45 H45       -11.8408    1.7283   63.4012 H       1  ZINC000435292384    0.0600
     46 H46        -8.7321   -1.3493   63.8335 H       1  ZINC000435292384    0.0800
     47 H47        -7.4859   -0.3589   63.0370 H       1  ZINC000435292384    0.0800
     48 H48        -7.5045   -0.5088   64.8106 H       1  ZINC000435292384    0.1000
     49 H49        -8.2947    0.6252   61.3900 H       1  ZINC000435292384    0.0900
     50 H50        -8.9237    2.2876   61.3049 H       1  ZINC000435292384    0.0900
     51 H51        -9.2367   -2.5200   58.3522 H       1  ZINC000435292384    0.1100
     52 H52       -10.9989   -2.7919   58.1769 H       1  ZINC000435292384    0.1100
@<TRIPOS>BOND
     1     1     2    1
     2     1    26    1
     3     1    27    1
     4     1    28    1
     5     2     3    1
     6     2    29    1
     7     2    30    1
     8     3     4    1
     9     3    31    1
    10     3    32    1
    11     4     5    1
    12     4     6    1
    13     4     7    1
    14     6    33    1
    15     6    34    1
    16     6    35    1
    17     7    24   am
    18     7     8    1
    19     8     9    1
    20     8    36    1
    21     8    37    1
    22     9    10    1
    23     9    11    1
    24     9    23    1
    25    11    12    2
    26    11    13   am
    27    13    22    1
    28    13    14    1
    29    14    15    1
    30    14    38    1
    31    14    39    1
    32    15    16    1
    33    15    40    1
    34    15    41    1
    35    16    17    1
    36    16    42    1
    37    16    43    1
    38    17    18    1
    39    17    44    1
    40    17    45    1
    41    18    19    1
    42    18    20    1
    43    18    22    1
    44    20    21    1
    45    21    46    1
    46    21    47    1
    47    21    48    1
    48    22    49    1
    49    22    50    1
    50    23    24    1
    51    23    51    1
    52    23    52    1
    53    24    25    2
@<TRIPOS>SUBSTRUCTURE
     1 ZINC000435292384        1 TEMP              0 ****  ****    0 ROOT


##########                                Name:    ZINC000512239524
##########                DOCK_Rotatable_Bonds:                   9
##########                         Heavy_Atoms:                  31
##########                    Molecular_Weight:             424.518
##########                DOCK_Rotatable_Bonds:                   9
##########                       Formal_Charge:          0.00999919
##########                     HBond_Acceptors:                   7
##########                        HBond_Donors:                   1
##########                         Heavy_Atoms:                  31
##########                          Grid_Score:          -24.772560
##########                     Grid_vdw_energy:          -24.474014
##########                      Grid_es_energy:           -0.298545
##########           Internal_energy_repulsive:           45.653126

@<TRIPOS>MOLECULE
ZINC000512239524
 60 63 1 0 0
SMALL
USER_CHARGES


@<TRIPOS>ATOM
      1 C1         -7.1157    4.9704   54.1695 C.3     1  ZINC000512239524   -0.1600
      2 C2         -6.0492    4.0588   54.7798 C.3     1  ZINC000512239524    0.2000
      3 H3         -5.3408    4.6596   55.3501 H       1  ZINC000512239524    0.1100
      4 N4         -6.6891    3.0848   55.6675 N.am    1  ZINC000512239524   -0.7400
      5 C5         -6.7962    3.3431   56.9859 C.2     1  ZINC000512239524    0.7100
      6 O6         -6.3616    4.3846   57.4386 O.2     1  ZINC000512239524   -0.5800
      7 N7         -7.3849    2.4470   57.8025 N.am    1  ZINC000512239524   -0.6300
      8 C8         -7.5143    2.7170   59.2409 C.3     1  ZINC000512239524    0.1300
      9 C9         -8.9841    2.5569   59.6424 C.3     1  ZINC000512239524   -0.1100
     10 C10        -9.4772    1.1722   59.2159 C.3     1  ZINC000512239524   -0.1000
     11 C11       -10.9129    0.9983   59.6395 C.2     1  ZINC000512239524    0.5300
     12 O12       -11.5619    1.9602   59.9925 O.2     1  ZINC000512239524   -0.5300
     13 N13       -11.4758   -0.2263   59.6261 N.am    1  ZINC000512239524   -0.5800
     14 C14       -12.8721   -0.3951   60.0363 C.3     1  ZINC000512239524    0.1500
     15 C15       -13.7251   -0.6522   58.8208 C.ar    1  ZINC000512239524   -0.1100
     16 C16       -14.8706   -1.4183   58.9299 C.ar    1  ZINC000512239524   -0.0900
     17 C17       -15.6530   -1.6540   57.8150 C.ar    1  ZINC000512239524   -0.1200
     18 C18       -15.2903   -1.1235   56.5911 C.ar    1  ZINC000512239524   -0.1100
     19 C19       -14.1453   -0.3567   56.4823 C.ar    1  ZINC000512239524   -0.1200
     20 C20       -13.3651   -0.1173   57.5980 C.ar    1  ZINC000512239524   -0.1100
     21 C21       -10.6914   -1.3884   59.2015 C.3     1  ZINC000512239524    0.0700
     22 C22       -11.3976   -2.7453   59.1735 C.3     1  ZINC000512239524   -0.1900
     23 C23       -11.0540   -2.0346   57.8629 C.3     1  ZINC000512239524   -0.2000
     24 C24        -9.3746    1.0386   57.6948 C.3     1  ZINC000512239524   -0.1400
     25 C25        -7.9148    1.1842   57.2703 C.3     1  ZINC000512239524    0.1100
     26 C26        -5.3199    3.3323   53.6792 C.ar    1  ZINC000512239524   -0.0800
     27 C27        -6.0053    2.5203   52.7894 C.ar    1  ZINC000512239524   -0.1400
     28 C28        -5.3031    1.8698   51.7921 C.ar    1  ZINC000512239524    0.1000
     29 N29        -3.9972    2.0137   51.6814 N.ar    1  ZINC000512239524   -0.4600
     30 C30        -3.3106    2.7773   52.5087 C.ar    1  ZINC000512239524    0.0800
     31 C31        -3.9456    3.4646   53.5286 C.ar    1  ZINC000512239524    0.0600
     32 F32        -3.2366    4.2454   54.3729 F       1  ZINC000512239524   -0.1200
     33 H33        -7.6432    5.4959   54.9655 H       1  ZINC000512239524    0.0700
     34 H34        -6.6396    5.6952   53.5090 H       1  ZINC000512239524    0.0700
     35 H35        -7.8241    4.3696   53.5992 H       1  ZINC000512239524    0.0600
     36 H36        -7.0358    2.2539   55.3063 H       1  ZINC000512239524    0.3900
     37 H37        -6.9031    2.0100   59.8019 H       1  ZINC000512239524    0.0700
     38 H38        -7.1865    3.7348   59.4526 H       1  ZINC000512239524    0.1000
     39 H39        -9.0792    2.6600   60.7233 H       1  ZINC000512239524    0.0900
     40 H40        -9.5814    3.3237   59.1493 H       1  ZINC000512239524    0.0800
     41 H41        -8.8633    0.4063   59.6898 H       1  ZINC000512239524    0.1000
     42 H42       -12.9502   -1.2403   60.7202 H       1  ZINC000512239524    0.0900
     43 H43       -13.2158    0.5102   60.5366 H       1  ZINC000512239524    0.1000
     44 H44       -15.1541   -1.8328   59.8860 H       1  ZINC000512239524    0.1300
     45 H45       -16.5476   -2.2531   57.9000 H       1  ZINC000512239524    0.1200
     46 H46       -15.9013   -1.3083   55.7199 H       1  ZINC000512239524    0.1200
     47 H47       -13.8617    0.0576   55.5261 H       1  ZINC000512239524    0.1200
     48 H48       -12.4705    0.4818   57.5130 H       1  ZINC000512239524    0.1200
     49 H49        -9.6389   -1.3741   59.4847 H       1  ZINC000512239524    0.1300
     50 H50       -10.8097   -3.6241   59.4385 H       1  ZINC000512239524    0.1100
     51 H51       -12.4458   -2.7734   59.4710 H       1  ZINC000512239524    0.1000
     52 H52       -11.8762   -1.5950   57.2982 H       1  ZINC000512239524    0.1100
     53 H53       -10.2402   -2.4458   57.2657 H       1  ZINC000512239524    0.1000
     54 H54        -9.7478    0.0610   57.3895 H       1  ZINC000512239524    0.0900
     55 H55        -9.9684    1.8197   57.2200 H       1  ZINC000512239524    0.0700
     56 H56        -7.8494    1.1887   56.1823 H       1  ZINC000512239524    0.0800
     57 H57        -7.3334    0.3534   57.6701 H       1  ZINC000512239524    0.0800
     58 H58        -7.0749    2.3971   52.8743 H       1  ZINC000512239524    0.1400
     59 H59        -5.8307    1.2355   51.0951 H       1  ZINC000512239524    0.1700
     60 H60        -2.2416    2.8703   52.3868 H       1  ZINC000512239524    0.1700
@<TRIPOS>BOND
     1     1     2    1
     2     1    33    1
     3     1    34    1
     4     1    35    1
     5     2     3    1
     6     2     4    1
     7     2    26    1
     8     4     5   am
     9     4    36    1
    10     5     6    2
    11     5     7   am
    12     7    25    1
    13     7     8    1
    14     8     9    1
    15     8    37    1
    16     8    38    1
    17     9    10    1
    18     9    39    1
    19     9    40    1
    20    10    11    1
    21    10    24    1
    22    10    41    1
    23    11    12    2
    24    11    13   am
    25    13    14    1
    26    13    21    1
    27    14    15    1
    28    14    42    1
    29    14    43    1
    30    15    20   ar
    31    15    16   ar
    32    16    17   ar
    33    16    44    1
    34    17    18   ar
    35    17    45    1
    36    18    19   ar
    37    18    46    1
    38    19    20   ar
    39    19    47    1
    40    20    48    1
    41    21    23    1
    42    21    22    1
    43    21    49    1
    44    22    23    1
    45    22    50    1
    46    22    51    1
    47    23    52    1
    48    23    53    1
    49    24    25    1
    50    24    54    1
    51    24    55    1
    52    25    56    1
    53    25    57    1
    54    26    31   ar
    55    26    27   ar
    56    27    28   ar
    57    27    58    1
    58    28    29   ar
    59    28    59    1
    60    29    30   ar
    61    30    31   ar
    62    30    60    1
    63    31    32    1
@<TRIPOS>SUBSTRUCTURE
     1 ZINC000512239524        1 TEMP              0 ****  ****    0 ROOT


##########                                Name:    ZINC000828026236
##########                DOCK_Rotatable_Bonds:                   1
##########                         Heavy_Atoms:                  19
##########                    Molecular_Weight:             383.045
##########                DOCK_Rotatable_Bonds:                   1
##########                       Formal_Charge:                   0
##########                     HBond_Acceptors:                   5
##########                        HBond_Donors:                   0
##########                         Heavy_Atoms:                  19
##########                          Grid_Score:          -24.765888
##########                     Grid_vdw_energy:          -23.432528
##########                      Grid_es_energy:           -1.333361
##########           Internal_energy_repulsive:            2.614678

@<TRIPOS>MOLECULE
ZINC000828026236
 28 30 1 0 0
SMALL
USER_CHARGES


@<TRIPOS>ATOM
      1 N1        -12.2677    1.9689   61.9304 N.1     1  ZINC000828026236   -0.3800
      2 C2        -11.3342    1.4460   62.3118 C.1     1  ZINC000828026236    0.2600
      3 C3        -10.1574    0.7867   62.7925 C.ar    1  ZINC000828026236   -0.0500
      4 C4         -9.8630    0.7620   64.1603 C.ar    1  ZINC000828026236    0.0100
      5 C5         -8.7127    0.1114   64.5740 C.ar    1  ZINC000828026236   -0.1600
      6 Br6        -8.2633    0.0447   66.4096 Br      1  ZINC000828026236   -0.0100
      7 C7         -7.8949   -0.4901   63.6337 C.ar    1  ZINC000828026236    0.1800
      8 N8         -8.1905   -0.4555   62.3485 N.ar    1  ZINC000828026236   -0.5000
      9 C9         -9.2798    0.1473   61.8997 C.ar    1  ZINC000828026236    0.3600
     10 N10        -9.5503    0.1588   60.5420 N.3     1  ZINC000828026236   -0.4900
     11 C11        -9.0835   -1.0789   59.9014 C.3     1  ZINC000828026236    0.0500
     12 C12        -9.7120   -1.2079   58.5080 C.3     1  ZINC000828026236    0.1100
     13 N13        -9.5152    0.0582   57.7973 N.pl3   1  ZINC000828026236   -0.4400
     14 C14        -9.6256    0.3116   56.4652 C.2     1  ZINC000828026236   -0.0300
     15 Br15      -10.0802   -0.9296   55.1130 Br      1  ZINC000828026236    0.0200
     16 C16        -9.3474    1.6222   56.2967 C.2     1  ZINC000828026236    0.0300
     17 N17        -9.0751    2.1493   57.5026 N.2     1  ZINC000828026236   -0.4700
     18 C18        -9.1742    1.2221   58.4066 C.2     1  ZINC000828026236    0.2300
     19 C19        -8.9636    1.3462   59.8968 C.3     1  ZINC000828026236    0.1500
     20 H20       -10.5166    1.2391   64.8757 H       1  ZINC000828026236    0.1600
     21 H21        -6.9980   -0.9970   63.9579 H       1  ZINC000828026236    0.1800
     22 H22        -7.9977   -1.0521   59.8086 H       1  ZINC000828026236    0.0700
     23 H23        -9.3738   -1.9346   60.5109 H       1  ZINC000828026236    0.1100
     24 H24        -9.2282   -2.0162   57.9598 H       1  ZINC000828026236    0.1100
     25 H25       -10.7781   -1.4141   58.6031 H       1  ZINC000828026236    0.1000
     26 H26        -9.3440    2.1542   55.3568 H       1  ZINC000828026236    0.1800
     27 H27        -9.4565    2.2462   60.2645 H       1  ZINC000828026236    0.1200
     28 H28        -7.8969    1.3946   60.1151 H       1  ZINC000828026236    0.1000
@<TRIPOS>BOND
     1     1     2    3
     2     2     3    1
     3     3     9   ar
     4     3     4   ar
     5     4     5   ar
     6     4    20    1
     7     5     6    1
     8     5     7   ar
     9     7     8   ar
    10     7    21    1
    11     8     9   ar
    12     9    10    1
    13    10    19    1
    14    10    11    1
    15    11    12    1
    16    11    22    1
    17    11    23    1
    18    12    13    1
    19    12    24    1
    20    12    25    1
    21    13    18    1
    22    13    14    1
    23    14    15    1
    24    14    16    2
    25    16    17    1
    26    16    26    1
    27    17    18    2
    28    18    19    1
    29    19    27    1
    30    19    28    1
@<TRIPOS>SUBSTRUCTURE
     1 ZINC000828026236        1 TEMP              0 ****  ****    0 ROOT


##########                                Name:    ZINC001231746020
##########                DOCK_Rotatable_Bonds:                   3
##########                         Heavy_Atoms:                  19
##########                    Molecular_Weight:             348.667
##########                DOCK_Rotatable_Bonds:                   3
##########                       Formal_Charge:          -0.0399997
##########                     HBond_Acceptors:                   4
##########                        HBond_Donors:                   2
##########                         Heavy_Atoms:                  19
##########                          Grid_Score:          -24.764847
##########                     Grid_vdw_energy:          -20.964664
##########                      Grid_es_energy:           -3.800182
##########           Internal_energy_repulsive:           10.518025

@<TRIPOS>MOLECULE
ZINC001231746020
 38 39 1 0 0
SMALL
USER_CHARGES


@<TRIPOS>ATOM
      1 C1        -10.3028    1.5956   54.4178 C.3     1  ZINC001231746020   -0.1500
      2 C2        -10.0640    1.0835   55.8396 C.3     1  ZINC001231746020   -0.0900
      3 H3        -10.8256    1.4881   56.5063 H       1  ZINC001231746020    0.0800
      4 C4        -10.1303   -0.4204   55.8519 C.3     1  ZINC001231746020   -0.1400
      5 C5        -10.6616   -1.0009   57.1749 C.3     1  ZINC001231746020   -0.0100
      6 N6        -10.1108   -0.3363   58.3754 N.4     1  ZINC001231746020   -0.3800
      7 H7        -10.5956    0.5369   58.5189 H       1  ZINC001231746020    0.4100
      8 C8        -10.3285   -1.2010   59.5427 C.3     1  ZINC001231746020    0.0700
      9 C9        -11.7832   -1.1598   59.9341 C.ar    1  ZINC001231746020   -0.3100
     10 C10       -12.2428   -0.1658   60.7777 C.ar    1  ZINC001231746020   -0.0300
     11 C11       -13.5772   -0.1254   61.1381 C.ar    1  ZINC001231746020   -0.1600
     12 Cl12      -14.1536    1.1232   62.1975 Cl      1  ZINC001231746020   -0.0800
     13 C13       -14.4550   -1.0843   60.6524 C.ar    1  ZINC001231746020    0.3100
     14 O14       -15.7675   -1.0467   61.0047 O.3     1  ZINC001231746020   -0.6300
     15 C15       -13.9905   -2.0813   59.8060 C.ar    1  ZINC001231746020   -0.2100
     16 Br16      -15.1829   -3.3901   59.1416 Br      1  ZINC001231746020   -0.0600
     17 C17       -12.6569   -2.1132   59.4443 C.ar    1  ZINC001231746020   -0.0200
     18 C18        -8.6986   -0.0712   58.2443 C.3     1  ZINC001231746020   -0.0200
     19 C19        -8.5334    1.3807   57.7668 C.3     1  ZINC001231746020   -0.1800
     20 C20        -8.6599    1.5263   56.3219 C.3     1  ZINC001231746020    0.1000
     21 H21        -8.5017    2.5705   56.0522 H       1  ZINC001231746020    0.0700
     22 O22        -7.6682    0.7217   55.6807 O.3     1  ZINC001231746020   -0.5600
     23 H23       -11.2864    1.2734   54.0760 H       1  ZINC001231746020    0.0600
     24 H24        -9.5376    1.1937   53.7536 H       1  ZINC001231746020    0.0700
     25 H25       -10.2544    2.6846   54.4109 H       1  ZINC001231746020    0.0600
     26 H26       -10.7808   -0.7477   55.0409 H       1  ZINC001231746020    0.1000
     27 H27        -9.1296   -0.8153   55.6766 H       1  ZINC001231746020    0.1000
     28 H28       -11.7470   -0.9017   57.1883 H       1  ZINC001231746020    0.1200
     29 H29       -10.4103   -2.0606   57.2166 H       1  ZINC001231746020    0.1200
     30 H30       -10.0479   -2.2246   59.2942 H       1  ZINC001231746020    0.1200
     31 H31        -9.7184   -0.8489   60.3746 H       1  ZINC001231746020    0.1200
     32 H32       -11.5591    0.5801   61.1554 H       1  ZINC001231746020    0.1100
     33 H33       -12.2959   -2.8858   58.7815 H       1  ZINC001231746020    0.1100
     34 H34        -8.2079   -0.2004   59.2090 H       1  ZINC001231746020    0.1400
     35 H35        -8.2616   -0.7524   57.5141 H       1  ZINC001231746020    0.1300
     36 H36        -9.2926    1.9966   58.2488 H       1  ZINC001231746020    0.0900
     37 H37        -7.5492    1.7390   58.0685 H       1  ZINC001231746020    0.1100
     38 H38        -7.6999    0.7539   54.7148 H       1  ZINC001231746020    0.3900
@<TRIPOS>BOND
     1     1     2    1
     2     1    23    1
     3     1    24    1
     4     1    25    1
     5     2     3    1
     6     2    20    1
     7     2     4    1
     8     4     5    1
     9     4    26    1
    10     4    27    1
    11     5     6    1
    12     5    28    1
    13     5    29    1
    14     6     7    1
    15     6     8    1
    16     6    18    1
    17     8     9    1
    18     8    30    1
    19     8    31    1
    20     9    17   ar
    21     9    10   ar
    22    10    11   ar
    23    10    32    1
    24    11    12    1
    25    11    13   ar
    26    13    14    1
    27    13    15   ar
    28    15    16    1
    29    15    17   ar
    30    17    33    1
    31    18    19    1
    32    18    34    1
    33    18    35    1
    34    19    20    1
    35    19    36    1
    36    19    37    1
    37    20    21    1
    38    20    22    1
    39    22    38    1
@<TRIPOS>SUBSTRUCTURE
     1 ZINC001231746020        1 TEMP              0 ****  ****    0 ROOT


##########                                Name:    ZINC000956479608
##########                DOCK_Rotatable_Bonds:                   5
##########                         Heavy_Atoms:                  25
##########                    Molecular_Weight:             345.442
##########                DOCK_Rotatable_Bonds:                   5
##########                       Formal_Charge:          -0.0100001
##########                     HBond_Acceptors:                   6
##########                        HBond_Donors:                   1
##########                         Heavy_Atoms:                  25
##########                          Grid_Score:          -24.746574
##########                     Grid_vdw_energy:          -25.052570
##########                      Grid_es_energy:            0.305995
##########           Internal_energy_repulsive:           34.106106

@<TRIPOS>MOLECULE
ZINC000956479608
 52 55 1 0 0
SMALL
USER_CHARGES


@<TRIPOS>ATOM
      1 C1         -8.5800   -1.4492   59.4097 C.3     1  ZINC000956479608   -0.0900
      2 C2         -8.8402   -0.4056   60.4653 C.2     1  ZINC000956479608   -0.1100
      3 C3         -9.6496    0.6945   60.3827 C.2     1  ZINC000956479608   -0.1000
      4 C4        -10.4620    1.1126   59.2247 C.2     1  ZINC000956479608    0.6100
      5 O5        -10.8853    2.2505   59.1580 O.2     1  ZINC000956479608   -0.5000
      6 N6        -10.7352    0.2333   58.2405 N.am    1  ZINC000956479608   -0.7100
      7 C7        -11.5435    0.6479   57.0913 C.3     1  ZINC000956479608    0.1800
      8 C8        -12.9202    1.1075   57.5756 C.3     1  ZINC000956479608   -0.1700
      9 C9        -10.8465    1.8023   56.3676 C.3     1  ZINC000956479608   -0.1500
     10 C10        -9.4551    1.3495   55.9141 C.3     1  ZINC000956479608    0.1100
     11 N11        -9.5942    0.1286   55.1087 N.am    1  ZINC000956479608   -0.6100
     12 C12        -9.0594    0.0560   53.8737 C.2     1  ZINC000956479608    0.5500
     13 O13        -9.1825   -0.9571   53.2183 O.2     1  ZINC000956479608   -0.5400
     14 C14        -8.3086    1.2334   53.3072 C.3     1  ZINC000956479608   -0.1900
     15 H15        -8.9266    2.0470   52.9274 H       1  ZINC000956479608    0.1200
     16 C16        -6.9819    1.6017   53.9582 C.3     1  ZINC000956479608   -0.1100
     17 H17        -6.6656    0.9679   54.7867 H       1  ZINC000956479608    0.1000
     18 C18        -6.5840    3.0636   54.0906 C.3     1  ZINC000956479608   -0.0900
     19 C19        -6.7478    3.7865   52.7536 C.3     1  ZINC000956479608   -0.1200
     20 C20        -5.9478    3.0293   51.6875 C.3     1  ZINC000956479608   -0.1200
     21 C21        -6.7022    1.7483   51.3308 C.3     1  ZINC000956479608   -0.0900
     22 C22        -6.9841    0.9492   52.5821 C.3     1  ZINC000956479608   -0.1100
     23 H23        -6.6610   -0.0914   52.5548 H       1  ZINC000956479608    0.1100
     24 C24       -10.3270   -1.0118   55.6754 C.3     1  ZINC000956479608    0.1000
     25 C25       -11.7087   -0.5326   56.1315 C.3     1  ZINC000956479608   -0.1400
     26 O26        -9.5548    1.3181   61.5723 O.3     1  ZINC000956479608    0.1200
     27 N27        -8.8082    0.7320   62.3209 N.2     1  ZINC000956479608   -0.3400
     28 C28        -8.3102   -0.3382   61.7730 C.2     1  ZINC000956479608   -0.0100
     29 H29        -9.3102   -2.2528   59.5054 H       1  ZINC000956479608    0.0800
     30 H30        -8.6657   -0.9963   58.4220 H       1  ZINC000956479608    0.0900
     31 H31        -7.5759   -1.8535   59.5382 H       1  ZINC000956479608    0.0800
     32 H32       -10.3965   -0.6741   58.2931 H       1  ZINC000956479608    0.4100
     33 H33       -12.8027    1.9480   58.2597 H       1  ZINC000956479608    0.0800
     34 H34       -13.5218    1.4161   56.7208 H       1  ZINC000956479608    0.0700
     35 H35       -13.4168    0.2858   58.0918 H       1  ZINC000956479608    0.0600
     36 H36       -11.4352    2.0950   55.4981 H       1  ZINC000956479608    0.0800
     37 H37       -10.7503    2.6510   57.0447 H       1  ZINC000956479608    0.1000
     38 H38        -8.9937    2.1331   55.3132 H       1  ZINC000956479608    0.0900
     39 H39        -8.8356    1.1430   56.7869 H       1  ZINC000956479608    0.0600
     40 H40        -7.2167    3.5422   54.8381 H       1  ZINC000956479608    0.0700
     41 H41        -5.5432    3.1258   54.4081 H       1  ZINC000956479608    0.0700
     42 H42        -7.8013    3.8066   52.4750 H       1  ZINC000956479608    0.0600
     43 H43        -6.3699    4.8053   52.8398 H       1  ZINC000956479608    0.0700
     44 H44        -5.8422    3.6514   50.7986 H       1  ZINC000956479608    0.0700
     45 H45        -4.9627    2.7767   52.0797 H       1  ZINC000956479608    0.0700
     46 H46        -7.6460    2.0067   50.8506 H       1  ZINC000956479608    0.0700
     47 H47        -6.1002    1.1541   50.6432 H       1  ZINC000956479608    0.0700
     48 H48       -10.4409   -1.7863   54.9169 H       1  ZINC000956479608    0.0900
     49 H49        -9.7786   -1.4109   56.5287 H       1  ZINC000956479608    0.0700
     50 H50       -12.2261   -1.3457   56.6406 H       1  ZINC000956479608    0.0900
     51 H51       -12.2892   -0.2180   55.2642 H       1  ZINC000956479608    0.0900
     52 H52        -7.6203   -1.0342   62.2265 H       1  ZINC000956479608    0.2000
@<TRIPOS>BOND
     1     1     2    1
     2     1    29    1
     3     1    30    1
     4     1    31    1
     5     2    28    1
     6     2     3    2
     7     3     4    1
     8     3    26    1
     9     4     5    2
    10     4     6   am
    11     6     7    1
    12     6    32    1
    13     7    25    1
    14     7     8    1
    15     7     9    1
    16     8    33    1
    17     8    34    1
    18     8    35    1
    19     9    10    1
    20     9    36    1
    21     9    37    1
    22    10    11    1
    23    10    38    1
    24    10    39    1
    25    11    12   am
    26    11    24    1
    27    12    13    2
    28    12    14    1
    29    14    15    1
    30    14    22    1
    31    14    16    1
    32    16    17    1
    33    16    22    1
    34    16    18    1
    35    18    19    1
    36    18    40    1
    37    18    41    1
    38    19    20    1
    39    19    42    1
    40    19    43    1
    41    20    21    1
    42    20    44    1
    43    20    45    1
    44    21    22    1
    45    21    46    1
    46    21    47    1
    47    22    23    1
    48    24    25    1
    49    24    48    1
    50    24    49    1
    51    25    50    1
    52    25    51    1
    53    26    27    1
    54    27    28    2
    55    28    52    1
@<TRIPOS>SUBSTRUCTURE
     1 ZINC000956479608        1 TEMP              0 ****  ****    0 ROOT


##########                                Name:    ZINC000422507946
##########                DOCK_Rotatable_Bonds:                   7
##########                         Heavy_Atoms:                  25
##########                    Molecular_Weight:             364.484
##########                DOCK_Rotatable_Bonds:                   7
##########                       Formal_Charge:          0.00999952
##########                     HBond_Acceptors:                   6
##########                        HBond_Donors:                   1
##########                         Heavy_Atoms:                  25
##########                          Grid_Score:          -24.690632
##########                     Grid_vdw_energy:          -23.939739
##########                      Grid_es_energy:           -0.750892
##########           Internal_energy_repulsive:           33.207344

@<TRIPOS>MOLECULE
ZINC000422507946
 50 52 1 0 0
SMALL
USER_CHARGES


@<TRIPOS>ATOM
      1 C1         -4.4114    2.1607   51.6520 C.3     1  ZINC000422507946   -0.1400
      2 C2         -5.8494    2.6276   51.8863 C.3     1  ZINC000422507946   -0.0400
      3 H3         -5.9857    3.6406   51.5077 H       1  ZINC000422507946    0.1100
      4 C4         -6.1978    2.5635   53.3880 C.3     1  ZINC000422507946   -0.1400
      5 C5         -7.6870    2.2083   53.5400 C.3     1  ZINC000422507946    0.1400
      6 H6         -8.3041    3.0592   53.2514 H       1  ZINC000422507946    0.1100
      7 N7         -7.9725    1.8309   54.9265 N.am    1  ZINC000422507946   -0.6900
      8 C8         -9.2036    2.0275   55.4386 C.2     1  ZINC000422507946    0.5100
      9 O9        -10.0759    2.5157   54.7508 O.2     1  ZINC000422507946   -0.5000
     10 C10        -9.4942    1.6441   56.8535 C.2     1  ZINC000422507946    0.5100
     11 O11        -9.3694    2.4616   57.7415 O.2     1  ZINC000422507946   -0.5200
     12 N12        -9.8950    0.3903   57.1431 N.am    1  ZINC000422507946   -0.5700
     13 C13       -10.0457   -0.5965   56.0709 C.3     1  ZINC000422507946    0.1400
     14 C14       -11.2239   -0.2248   55.2078 C.ar    1  ZINC000422507946   -0.0800
     15 C15       -11.2295   -0.5569   53.8661 C.ar    1  ZINC000422507946   -0.1100
     16 C16       -12.3097   -0.2166   53.0730 C.ar    1  ZINC000422507946   -0.0900
     17 C17       -13.3851    0.4561   53.6211 C.ar    1  ZINC000422507946   -0.1500
     18 C18       -13.3807    0.7889   54.9653 C.ar    1  ZINC000422507946    0.1000
     19 F19       -14.4316    1.4466   55.5022 F       1  ZINC000422507946   -0.1400
     20 C20       -12.3009    0.4429   55.7595 C.ar    1  ZINC000422507946   -0.1500
     21 C21       -10.1800    0.0143   58.5301 C.3     1  ZINC000422507946    0.1400
     22 C22       -11.0973   -1.2255   58.5636 C.3     1  ZINC000422507946   -0.1200
     23 C23       -10.1205   -2.4165   58.7262 C.3     1  ZINC000422507946   -0.1300
     24 C24        -9.0489   -1.8504   59.6907 C.3     1  ZINC000422507946   -0.1200
     25 C25        -8.8776   -0.3831   59.2467 C.3     1  ZINC000422507946   -0.1600
     26 C26        -7.9633    1.0088   52.5957 C.3     1  ZINC000422507946   -0.0900
     27 S27        -7.0312    1.4819   51.0843 S.3     1  ZINC000422507946   -0.2700
     28 H28        -4.1909    2.1847   50.5848 H       1  ZINC000422507946    0.0700
     29 H29        -3.7241    2.8218   52.1799 H       1  ZINC000422507946    0.0700
     30 H30        -4.2946    1.1429   52.0244 H       1  ZINC000422507946    0.0700
     31 H31        -5.5885    1.8006   53.8725 H       1  ZINC000422507946    0.0900
     32 H32        -6.0035    3.5312   53.8502 H       1  ZINC000422507946    0.0900
     33 H33        -7.2754    1.4395   55.4759 H       1  ZINC000422507946    0.4100
     34 H34        -9.1410   -0.6135   55.4630 H       1  ZINC000422507946    0.1100
     35 H35       -10.2102   -1.5827   56.5051 H       1  ZINC000422507946    0.1000
     36 H36       -10.3891   -1.0824   53.4368 H       1  ZINC000422507946    0.1400
     37 H37       -12.3128   -0.4763   52.0248 H       1  ZINC000422507946    0.1300
     38 H38       -14.2283    0.7224   53.0013 H       1  ZINC000422507946    0.1400
     39 H39       -12.2966    0.7017   56.8081 H       1  ZINC000422507946    0.1400
     40 H40       -10.6547    0.8452   59.0519 H       1  ZINC000422507946    0.1100
     41 H41       -11.7792   -1.1727   59.4124 H       1  ZINC000422507946    0.0800
     42 H42       -11.6542   -1.3135   57.6307 H       1  ZINC000422507946    0.0600
     43 H43       -10.6267   -3.2733   59.1710 H       1  ZINC000422507946    0.0700
     44 H44        -9.6751   -2.6843   57.7681 H       1  ZINC000422507946    0.0600
     45 H45        -9.3999   -1.8986   60.7215 H       1  ZINC000422507946    0.0700
     46 H46        -8.1109   -2.3945   59.5803 H       1  ZINC000422507946    0.0700
     47 H47        -8.0335   -0.2961   58.5625 H       1  ZINC000422507946    0.0900
     48 H48        -8.7206    0.2544   60.1167 H       1  ZINC000422507946    0.0800
     49 H49        -7.5733    0.0834   53.0196 H       1  ZINC000422507946    0.1000
     50 H50        -9.0285    0.9204   52.3820 H       1  ZINC000422507946    0.1100
@<TRIPOS>BOND
     1     1     2    1
     2     1    28    1
     3     1    29    1
     4     1    30    1
     5     2     3    1
     6     2    27    1
     7     2     4    1
     8     4     5    1
     9     4    31    1
    10     4    32    1
    11     5     6    1
    12     5     7    1
    13     5    26    1
    14     7     8   am
    15     7    33    1
    16     8     9    2
    17     8    10    1
    18    10    11    2
    19    10    12   am
    20    12    13    1
    21    12    21    1
    22    13    14    1
    23    13    34    1
    24    13    35    1
    25    14    20   ar
    26    14    15   ar
    27    15    16   ar
    28    15    36    1
    29    16    17   ar
    30    16    37    1
    31    17    18   ar
    32    17    38    1
    33    18    19    1
    34    18    20   ar
    35    20    39    1
    36    21    25    1
    37    21    22    1
    38    21    40    1
    39    22    23    1
    40    22    41    1
    41    22    42    1
    42    23    24    1
    43    23    43    1
    44    23    44    1
    45    24    25    1
    46    24    45    1
    47    24    46    1
    48    25    47    1
    49    25    48    1
    50    26    27    1
    51    26    49    1
    52    26    50    1
@<TRIPOS>SUBSTRUCTURE
     1 ZINC000422507946        1 TEMP              0 ****  ****    0 ROOT


##########                                Name:    ZINC000549381790
##########                DOCK_Rotatable_Bonds:                   7
##########                         Heavy_Atoms:                  23
##########                    Molecular_Weight:             337.846
##########                DOCK_Rotatable_Bonds:                   7
##########                       Formal_Charge:           0.0300006
##########                     HBond_Acceptors:                   5
##########                        HBond_Donors:                   0
##########                         Heavy_Atoms:                  23
##########                          Grid_Score:          -24.624258
##########                     Grid_vdw_energy:          -24.299416
##########                      Grid_es_energy:           -0.324843
##########           Internal_energy_repulsive:           99.707504

@<TRIPOS>MOLECULE
ZINC000549381790
 47 49 1 0 0
SMALL
USER_CHARGES


@<TRIPOS>ATOM
      1 C1        -15.9345   -2.8097   59.3688 C.3     1  ZINC000549381790   -0.1400
      2 C2        -15.3172   -1.5308   58.7996 C.3     1  ZINC000549381790    0.1500
      3 H3        -16.0594   -1.0012   58.2024 H       1  ZINC000549381790    0.0700
      4 C4        -14.8461   -0.6327   59.9478 C.3     1  ZINC000549381790   -0.1300
      5 C5        -14.1063    0.5775   59.3731 C.3     1  ZINC000549381790   -0.1200
      6 C6        -12.8766    0.1034   58.5950 C.3     1  ZINC000549381790   -0.1400
      7 C7        -13.3254   -0.7862   57.4315 C.3     1  ZINC000549381790    0.1000
      8 N8        -14.1620   -1.8734   57.9589 N.am    1  ZINC000549381790   -0.6100
      9 C9        -13.8719   -3.1598   57.6809 C.2     1  ZINC000549381790    0.5200
     10 O10       -14.5700   -4.0479   58.1223 O.2     1  ZINC000549381790   -0.5000
     11 C11       -12.6799   -3.4947   56.8216 C.3     1  ZINC000549381790    0.0400
     12 O12       -11.5334   -3.6885   57.6524 O.3     1  ZINC000549381790   -0.2800
     13 C13       -10.6732   -2.6419   57.7711 C.ar    1  ZINC000549381790    0.1100
     14 C14       -10.1650   -2.0299   56.6353 C.ar    1  ZINC000549381790   -0.1700
     15 C15        -9.2913   -0.9662   56.7554 C.ar    1  ZINC000549381790   -0.1600
     16 C16        -8.9219   -0.5106   58.0116 C.ar    1  ZINC000549381790    0.1100
     17 O17        -8.0619    0.5364   58.1297 O.3     1  ZINC000549381790   -0.3000
     18 C18        -8.4599    1.7731   57.5346 C.3     1  ZINC000549381790    0.0900
     19 C19        -7.4167    2.8481   57.8461 C.3     1  ZINC000549381790   -0.1600
     20 C20        -7.9145    4.1597   58.4565 C.3     1  ZINC000549381790   -0.1700
     21 C21        -7.1414    3.1597   59.3185 C.3     1  ZINC000549381790   -0.1700
     22 C22        -9.4304   -1.1230   59.1490 C.ar    1  ZINC000549381790   -0.0300
     23 Cl23       -8.9686   -0.5526   60.7223 Cl      1  ZINC000549381790   -0.0400
     24 C24       -10.3087   -2.1831   59.0285 C.ar    1  ZINC000549381790   -0.1000
     25 H25       -15.1654   -3.3877   59.8811 H       1  ZINC000549381790    0.0600
     26 H26       -16.7236   -2.5494   60.0742 H       1  ZINC000549381790    0.0500
     27 H27       -16.3544   -3.4032   58.5567 H       1  ZINC000549381790    0.0800
     28 H28       -15.7086   -0.2932   60.5214 H       1  ZINC000549381790    0.0800
     29 H29       -14.1750   -1.1946   60.5973 H       1  ZINC000549381790    0.0700
     30 H30       -14.7704    1.1251   58.7043 H       1  ZINC000549381790    0.0700
     31 H31       -13.7915    1.2307   60.1868 H       1  ZINC000549381790    0.0700
     32 H32       -12.3373    0.9669   58.2056 H       1  ZINC000549381790    0.0800
     33 H33       -12.2241   -0.4654   59.2572 H       1  ZINC000549381790    0.0700
     34 H34       -13.9033   -0.1950   56.7212 H       1  ZINC000549381790    0.0800
     35 H35       -12.4510   -1.2063   56.9343 H       1  ZINC000549381790    0.0800
     36 H36       -12.8810   -4.4078   56.2614 H       1  ZINC000549381790    0.0900
     37 H37       -12.4913   -2.6763   56.1270 H       1  ZINC000549381790    0.0900
     38 H38       -10.4519   -2.3849   55.6565 H       1  ZINC000549381790    0.1400
     39 H39        -8.8957   -0.4898   55.8705 H       1  ZINC000549381790    0.1400
     40 H40        -8.5409    1.6475   56.4549 H       1  ZINC000549381790    0.0700
     41 H41        -9.4258    2.0765   57.9385 H       1  ZINC000549381790    0.0700
     42 H42        -6.5758    2.9016   57.1546 H       1  ZINC000549381790    0.1200
     43 H43        -7.4012    5.0765   58.1665 H       1  ZINC000549381790    0.1000
     44 H44        -8.9852    4.2568   58.6361 H       1  ZINC000549381790    0.1000
     45 H45        -7.7034    2.5989   60.0653 H       1  ZINC000549381790    0.1000
     46 H46        -6.1195    3.4186   59.5956 H       1  ZINC000549381790    0.1000
     47 H47       -10.7045   -2.6598   59.9130 H       1  ZINC000549381790    0.1500
@<TRIPOS>BOND
     1     1     2    1
     2     1    25    1
     3     1    26    1
     4     1    27    1
     5     2     3    1
     6     2     8    1
     7     2     4    1
     8     4     5    1
     9     4    28    1
    10     4    29    1
    11     5     6    1
    12     5    30    1
    13     5    31    1
    14     6     7    1
    15     6    32    1
    16     6    33    1
    17     7     8    1
    18     7    34    1
    19     7    35    1
    20     8     9   am
    21     9    10    2
    22     9    11    1
    23    11    12    1
    24    11    36    1
    25    11    37    1
    26    12    13    1
    27    13    24   ar
    28    13    14   ar
    29    14    15   ar
    30    14    38    1
    31    15    16   ar
    32    15    39    1
    33    16    17    1
    34    16    22   ar
    35    17    18    1
    36    18    19    1
    37    18    40    1
    38    18    41    1
    39    19    21    1
    40    19    20    1
    41    19    42    1
    42    20    21    1
    43    20    43    1
    44    20    44    1
    45    21    45    1
    46    21    46    1
    47    22    23    1
    48    22    24   ar
    49    24    47    1
@<TRIPOS>SUBSTRUCTURE
     1 ZINC000549381790        1 TEMP              0 ****  ****    0 ROOT


##########                                Name:    ZINC001076281847
##########                DOCK_Rotatable_Bonds:                   4
##########                         Heavy_Atoms:                  24
##########                    Molecular_Weight:             362.883
##########                DOCK_Rotatable_Bonds:                   4
##########                       Formal_Charge:         -0.00999959
##########                     HBond_Acceptors:                   7
##########                        HBond_Donors:                   0
##########                         Heavy_Atoms:                  24
##########                          Grid_Score:          -24.614311
##########                     Grid_vdw_energy:          -26.358992
##########                      Grid_es_energy:            1.744680
##########           Internal_energy_repulsive:           10.423126

@<TRIPOS>MOLECULE
ZINC001076281847
 43 46 1 0 0
SMALL
USER_CHARGES


@<TRIPOS>ATOM
      1 C1         -9.6433   -1.0506   53.1079 C.3     1  ZINC001076281847   -0.0900
      2 C2         -9.0521   -0.1302   54.1445 C.2     1  ZINC001076281847    0.1400
      3 N3         -8.6322    1.0618   53.8363 N.2     1  ZINC001076281847   -0.4600
      4 S4         -8.0464    1.7698   55.2618 S.3     1  ZINC001076281847    0.2500
      5 C5         -8.3831    0.4199   56.2740 C.2     1  ZINC001076281847   -0.2100
      6 C6         -8.1218    0.3015   57.7535 C.3     1  ZINC001076281847    0.1200
      7 N7         -8.8577   -0.8511   58.2900 N.3     1  ZINC001076281847   -0.5000
      8 C8        -10.3073   -0.5995   58.2859 C.3     1  ZINC001076281847    0.0300
      9 C9        -10.8670   -1.2000   59.5894 C.3     1  ZINC001076281847   -0.1000
     10 H10       -11.2757   -2.2026   59.4640 H       1  ZINC001076281847    0.1200
     11 C11       -11.8795   -0.1916   60.1931 C.3     1  ZINC001076281847   -0.1300
     12 C12       -10.9391    0.9060   60.7489 C.3     1  ZINC001076281847    0.1000
     13 N13        -9.7723    0.1729   61.2722 N.am    1  ZINC001076281847   -0.6000
     14 C14        -8.9369    0.6120   62.2343 C.2     1  ZINC001076281847    0.5700
     15 O15        -8.0027   -0.0791   62.5897 O.2     1  ZINC001076281847   -0.4900
     16 C16        -9.1574    1.9366   62.8583 C.ar    1  ZINC001076281847   -0.0800
     17 C17        -9.2297    3.0952   62.0789 C.ar    1  ZINC001076281847   -0.1800
     18 C18        -9.4371    4.3103   62.7023 C.ar    1  ZINC001076281847    0.1000
     19 N19        -9.5662    4.3868   64.0118 N.ar    1  ZINC001076281847   -0.4500
     20 C20        -9.5048    3.3209   64.7844 C.ar    1  ZINC001076281847    0.1100
     21 C21        -9.3052    2.0633   64.2444 C.ar    1  ZINC001076281847   -0.0500
     22 Cl22       -9.2264    0.6655   65.2708 Cl      1  ZINC001076281847   -0.0100
     23 C23        -9.6626   -1.1355   60.5671 C.3     1  ZINC001076281847    0.1000
     24 H24        -9.6637   -1.9667   61.2723 H       1  ZINC001076281847    0.1100
     25 C25        -8.4243   -1.1617   59.6605 C.3     1  ZINC001076281847    0.0200
     26 C26        -8.9361   -0.5098   55.4641 C.2     1  ZINC001076281847   -0.1800
     27 H27       -10.7285   -0.9482   53.1079 H       1  ZINC001076281847    0.0700
     28 H28        -9.2535   -0.7883   52.1244 H       1  ZINC001076281847    0.0800
     29 H29        -9.3756   -2.0810   53.3419 H       1  ZINC001076281847    0.0900
     30 H30        -7.0543    0.1623   57.9238 H       1  ZINC001076281847    0.1000
     31 H31        -8.4543    1.2103   58.2550 H       1  ZINC001076281847    0.1000
     32 H32       -10.4994    0.4731   58.2571 H       1  ZINC001076281847    0.0600
     33 H33       -10.7673   -1.0841   57.4247 H       1  ZINC001076281847    0.0900
     34 H34       -12.5360    0.2111   59.4218 H       1  ZINC001076281847    0.0900
     35 H35       -12.4580   -0.6519   60.9941 H       1  ZINC001076281847    0.0800
     36 H36       -10.6348    1.5842   59.9517 H       1  ZINC001076281847    0.0800
     37 H37       -11.4313    1.4573   61.5500 H       1  ZINC001076281847    0.0800
     38 H38        -9.1245    3.0410   61.0053 H       1  ZINC001076281847    0.1800
     39 H39        -9.4940    5.2105   62.1082 H       1  ZINC001076281847    0.1700
     40 H40        -9.6160    3.4304   65.8531 H       1  ZINC001076281847    0.1700
     41 H41        -7.9578   -2.1459   59.7020 H       1  ZINC001076281847    0.1000
     42 H42        -7.7129   -0.4027   59.9862 H       1  ZINC001076281847    0.0700
     43 H43        -9.2560   -1.4774   55.8218 H       1  ZINC001076281847    0.1400
@<TRIPOS>BOND
     1     1     2    1
     2     1    27    1
     3     1    28    1
     4     1    29    1
     5     2    26    1
     6     2     3    2
     7     3     4    1
     8     4     5    1
     9     5     6    1
    10     5    26    2
    11     6     7    1
    12     6    30    1
    13     6    31    1
    14     7    25    1
    15     7     8    1
    16     8     9    1
    17     8    32    1
    18     8    33    1
    19     9    10    1
    20     9    23    1
    21     9    11    1
    22    11    12    1
    23    11    34    1
    24    11    35    1
    25    12    13    1
    26    12    36    1
    27    12    37    1
    28    13    14   am
    29    13    23    1
    30    14    15    2
    31    14    16    1
    32    16    21   ar
    33    16    17   ar
    34    17    18   ar
    35    17    38    1
    36    18    19   ar
    37    18    39    1
    38    19    20   ar
    39    20    21   ar
    40    20    40    1
    41    21    22    1
    42    23    24    1
    43    23    25    1
    44    25    41    1
    45    25    42    1
    46    26    43    1
@<TRIPOS>SUBSTRUCTURE
     1 ZINC001076281847        1 TEMP              0 ****  ****    0 ROOT


##########                                Name:    ZINC000944933040
##########                DOCK_Rotatable_Bonds:                   4
##########                         Heavy_Atoms:                  26
##########                    Molecular_Weight:             354.449
##########                DOCK_Rotatable_Bonds:                   4
##########                       Formal_Charge:           0.0100002
##########                     HBond_Acceptors:                   5
##########                        HBond_Donors:                   0
##########                         Heavy_Atoms:                  26
##########                          Grid_Score:          -24.583019
##########                     Grid_vdw_energy:          -25.289885
##########                      Grid_es_energy:            0.706865
##########           Internal_energy_repulsive:            9.606294

@<TRIPOS>MOLECULE
ZINC000944933040
 52 57 1 0 0
SMALL
USER_CHARGES


@<TRIPOS>ATOM
      1 O1         -9.8763   -1.4377   52.4044 O.2     1  ZINC000944933040   -0.5200
      2 C2         -9.2280   -0.6639   53.0825 C.2     1  ZINC000944933040    0.6400
      3 C3         -8.4245    0.3403   52.4526 C.1     1  ZINC000944933040   -0.2200
      4 C4         -7.7659    1.1635   51.9361 C.1     1  ZINC000944933040   -0.0400
      5 C5         -6.9400    2.1956   51.2885 C.3     1  ZINC000944933040   -0.0700
      6 C6         -7.6201    3.5156   50.9194 C.3     1  ZINC000944933040   -0.1600
      7 C7         -6.6363    3.4630   52.0901 C.3     1  ZINC000944933040   -0.1600
      8 N8         -9.2698   -0.7478   54.4270 N.am    1  ZINC000944933040   -0.6000
      9 C9        -10.0854   -1.7777   55.0840 C.3     1  ZINC000944933040    0.1100
     10 C10       -11.0528   -1.0939   56.0575 C.3     1  ZINC000944933040   -0.1200
     11 C11       -10.2626   -0.1709   56.9819 C.3     1  ZINC000944933040   -0.0900
     12 C12       -11.0938    0.3979   58.1402 C.3     1  ZINC000944933040    0.1200
     13 N13        -9.9135    0.1249   58.9843 N.am    1  ZINC000944933040   -0.6400
     14 C14        -9.4464    0.6268   60.1447 C.2     1  ZINC000944933040    0.5500
     15 O15        -8.4164    0.1977   60.6200 O.2     1  ZINC000944933040   -0.5300
     16 C16       -10.2038    1.7212   60.8516 C.3     1  ZINC000944933040   -0.1300
     17 H17       -10.8388    2.2638   60.1512 H       1  ZINC000944933040    0.1100
     18 C18        -9.2286    2.6877   61.5708 C.3     1  ZINC000944933040   -0.1300
     19 C19        -9.6345    2.5365   63.0676 C.3     1  ZINC000944933040    0.0900
     20 H20        -8.8703    2.8224   63.7903 H       1  ZINC000944933040    0.1300
     21 O21       -10.0548    1.1333   63.1094 O.3     1  ZINC000944933040   -0.3600
     22 C22       -11.0478    1.1392   62.0250 C.3     1  ZINC000944933040    0.1200
     23 H23       -11.5432    0.1875   61.8331 H       1  ZINC000944933040    0.1400
     24 C24       -11.9835    2.3005   62.4764 C.3     1  ZINC000944933040   -0.2000
     25 H25       -12.7559    2.6378   61.7852 H       1  ZINC000944933040    0.1200
     26 C26       -12.1452    2.5250   63.9812 C.3     1  ZINC000944933040   -0.1300
     27 C27       -10.9950    3.2839   63.2030 C.3     1  ZINC000944933040   -0.2000
     28 H28       -11.0309    4.3676   63.0911 H       1  ZINC000944933040    0.1300
     29 C29        -9.4504   -0.9191   58.0484 C.3     1  ZINC000944933040    0.1100
     30 C30        -9.4567    0.8860   56.2307 C.3     1  ZINC000944933040   -0.1100
     31 C31        -8.4955    0.1854   55.2560 C.3     1  ZINC000944933040    0.1100
     32 H32        -6.1634    1.8250   50.6196 H       1  ZINC000944933040    0.1400
     33 H33        -7.2908    4.0135   50.0073 H       1  ZINC000944933040    0.1100
     34 H34        -8.6789    3.6196   51.1561 H       1  ZINC000944933040    0.1000
     35 H35        -7.0480    3.5325   53.0969 H       1  ZINC000944933040    0.1000
     36 H36        -5.6600    3.9263   51.9482 H       1  ZINC000944933040    0.1100
     37 H37       -10.6514   -2.3294   54.3335 H       1  ZINC000944933040    0.0900
     38 H38        -9.4380   -2.4618   55.6324 H       1  ZINC000944933040    0.0800
     39 H39       -11.7824   -0.5099   55.4963 H       1  ZINC000944933040    0.0800
     40 H40       -11.5680   -1.8495   56.6504 H       1  ZINC000944933040    0.0900
     41 H41       -11.3244    1.4582   58.0365 H       1  ZINC000944933040    0.0800
     42 H42       -11.9651   -0.2058   58.3940 H       1  ZINC000944933040    0.0900
     43 H43        -8.1949    2.3778   61.4180 H       1  ZINC000944933040    0.0800
     44 H44        -9.3800    3.7123   61.2313 H       1  ZINC000944933040    0.0900
     45 H45       -12.9923    3.1268   64.3107 H       1  ZINC000944933040    0.1000
     46 H46       -11.8670    1.7052   64.6436 H       1  ZINC000944933040    0.1000
     47 H47        -9.8334   -1.9141   58.2749 H       1  ZINC000944933040    0.0900
     48 H48        -8.3750   -0.9056   57.8716 H       1  ZINC000944933040    0.0800
     49 H49       -10.1344    1.5342   55.6751 H       1  ZINC000944933040    0.0800
     50 H50        -8.8832    1.4804   56.9419 H       1  ZINC000944933040    0.0800
     51 H51        -7.7376   -0.3597   55.8186 H       1  ZINC000944933040    0.0700
     52 H52        -8.0164    0.9281   54.6180 H       1  ZINC000944933040    0.1000
@<TRIPOS>BOND
     1     1     2    2
     2     2     3    1
     3     2     8   am
     4     3     4    3
     5     4     5    1
     6     5     7    1
     7     5     6    1
     8     5    32    1
     9     6     7    1
    10     6    33    1
    11     6    34    1
    12     7    35    1
    13     7    36    1
    14     8    31    1
    15     8     9    1
    16     9    10    1
    17     9    37    1
    18     9    38    1
    19    10    11    1
    20    10    39    1
    21    10    40    1
    22    11    29    1
    23    11    12    1
    24    11    30    1
    25    12    13    1
    26    12    41    1
    27    12    42    1
    28    13    14   am
    29    13    29    1
    30    14    15    2
    31    14    16    1
    32    16    17    1
    33    16    22    1
    34    16    18    1
    35    18    19    1
    36    18    43    1
    37    18    44    1
    38    19    20    1
    39    19    27    1
    40    19    21    1
    41    21    22    1
    42    22    23    1
    43    22    24    1
    44    24    25    1
    45    24    27    1
    46    24    26    1
    47    26    27    1
    48    26    45    1
    49    26    46    1
    50    27    28    1
    51    29    47    1
    52    29    48    1
    53    30    31    1
    54    30    49    1
    55    30    50    1
    56    31    51    1
    57    31    52    1
@<TRIPOS>SUBSTRUCTURE
     1 ZINC000944933040        1 TEMP              0 ****  ****    0 ROOT


##########                                Name:    ZINC000797321835
##########                DOCK_Rotatable_Bonds:                   4
##########                         Heavy_Atoms:                  22
##########                    Molecular_Weight:             381.253
##########                DOCK_Rotatable_Bonds:                   4
##########                       Formal_Charge:           0.0200001
##########                     HBond_Acceptors:                   7
##########                        HBond_Donors:                   1
##########                         Heavy_Atoms:                  22
##########                          Grid_Score:          -24.533129
##########                     Grid_vdw_energy:          -24.194481
##########                      Grid_es_energy:           -0.338647
##########           Internal_energy_repulsive:            9.139977

@<TRIPOS>MOLECULE
ZINC000797321835
 35 37 1 0 0
SMALL
USER_CHARGES


@<TRIPOS>ATOM
      1 C1         -6.7208    4.3815   53.7930 C.3     1  ZINC000797321835    0.1000
      2 N2         -6.3042    3.3069   52.8887 N.am    1  ZINC000797321835   -0.6000
      3 C3         -5.0272    3.0415   52.5637 C.2     1  ZINC000797321835    0.5200
      4 O4         -4.0646    3.6575   52.9698 O.2     1  ZINC000797321835   -0.5200
      5 C5         -4.9653    1.8621   51.6183 C.3     1  ZINC000797321835   -0.1500
      6 C6         -6.3553    1.1974   51.7497 C.3     1  ZINC000797321835   -0.1200
      7 C7         -7.2272    2.3781   52.2258 C.3     1  ZINC000797321835    0.1200
      8 H8         -7.6976    2.8676   51.3731 H       1  ZINC000797321835    0.1100
      9 C9         -8.2769    1.8944   53.1929 C.2     1  ZINC000797321835    0.4900
     10 O10        -9.3268    2.4923   53.2974 O.2     1  ZINC000797321835   -0.4400
     11 N11        -8.0487    0.7973   53.9417 N.am    1  ZINC000797321835   -0.6500
     12 C12        -9.0202    0.3496   54.8368 C.ar    1  ZINC000797321835    0.3000
     13 C13        -9.3534    1.1229   55.9495 C.ar    1  ZINC000797321835   -0.1400
     14 C14       -10.3225    0.6403   56.8101 C.ar    1  ZINC000797321835   -0.0800
     15 C15       -10.9096   -0.5962   56.5105 C.ar    1  ZINC000797321835    0.1100
     16 C16       -11.9498   -1.1569   57.3962 C.2     1  ZINC000797321835   -0.1400
     17 C17       -12.1922   -0.7587   58.6616 C.2     1  ZINC000797321835   -0.0900
     18 C18       -13.2172   -1.4325   59.2917 C.2     1  ZINC000797321835   -0.0900
     19 C19       -13.8129   -2.3756   58.5533 C.2     1  ZINC000797321835   -0.2000
     20 Br20      -15.2445   -3.4674   59.1318 Br      1  ZINC000797321835    0.0200
     21 S21       -13.0689   -2.4421   56.9613 S.3     1  ZINC000797321835    0.1900
     22 N22       -10.5270   -1.2618   55.4261 N.ar    1  ZINC000797321835   -0.1900
     23 N23        -9.6306   -0.8069   54.6280 N.ar    1  ZINC000797321835   -0.2200
     24 H24        -6.7501    4.0050   54.8155 H       1  ZINC000797321835    0.0700
     25 H25        -6.0103    5.2057   53.7296 H       1  ZINC000797321835    0.0800
     26 H26        -7.7120    4.7335   53.5069 H       1  ZINC000797321835    0.0700
     27 H27        -4.7996    2.2012   50.5958 H       1  ZINC000797321835    0.1100
     28 H28        -4.1809    1.1694   51.9233 H       1  ZINC000797321835    0.1100
     29 H29        -6.6990    0.8186   50.7871 H       1  ZINC000797321835    0.1100
     30 H30        -6.3391    0.4036   52.4963 H       1  ZINC000797321835    0.0900
     31 H31        -7.2090    0.3190   53.8582 H       1  ZINC000797321835    0.4200
     32 H32        -8.8686    2.0703   56.1334 H       1  ZINC000797321835    0.1600
     33 H33       -10.6174    1.1990   57.6860 H       1  ZINC000797321835    0.1500
     34 H34       -11.6278    0.0258   59.1436 H       1  ZINC000797321835    0.1600
     35 H35       -13.5167   -1.2150   60.3062 H       1  ZINC000797321835    0.1600
@<TRIPOS>BOND
     1     1     2    1
     2     1    24    1
     3     1    25    1
     4     1    26    1
     5     2     7    1
     6     2     3   am
     7     3     4    2
     8     3     5    1
     9     5     6    1
    10     5    27    1
    11     5    28    1
    12     6     7    1
    13     6    29    1
    14     6    30    1
    15     7     8    1
    16     7     9    1
    17     9    10    2
    18     9    11   am
    19    11    12    1
    20    11    31    1
    21    12    23   ar
    22    12    13   ar
    23    13    14   ar
    24    13    32    1
    25    14    15   ar
    26    14    33    1
    27    15    16    1
    28    15    22   ar
    29    16    21    1
    30    16    17    2
    31    17    18    1
    32    17    34    1
    33    18    19    2
    34    18    35    1
    35    19    20    1
    36    19    21    1
    37    22    23   ar
@<TRIPOS>SUBSTRUCTURE
     1 ZINC000797321835        1 TEMP              0 ****  ****    0 ROOT


##########                                Name:    ZINC001018118384
##########                DOCK_Rotatable_Bonds:                   5
##########                         Heavy_Atoms:                  25
##########                    Molecular_Weight:             347.374
##########                DOCK_Rotatable_Bonds:                   5
##########                       Formal_Charge:           0.0299997
##########                     HBond_Acceptors:                   9
##########                        HBond_Donors:                   2
##########                         Heavy_Atoms:                  25
##########                          Grid_Score:          -24.507627
##########                     Grid_vdw_energy:          -24.757940
##########                      Grid_es_energy:            0.250313
##########           Internal_energy_repulsive:           98.387672

@<TRIPOS>MOLECULE
ZINC001018118384
 46 48 1 0 0
SMALL
USER_CHARGES


@<TRIPOS>ATOM
      1 C1        -15.0436   -2.5698   59.5826 C.3     1  ZINC001018118384   -0.0700
      2 C2        -13.5737   -2.2781   59.4236 C.2     1  ZINC001018118384    0.2200
      3 N3        -13.0389   -1.5972   58.4516 N.2     1  ZINC001018118384   -0.4600
      4 C4        -11.6959   -1.5414   58.6416 C.2     1  ZINC001018118384   -0.0700
      5 C5        -10.7203   -0.8651   57.7692 C.2     1  ZINC001018118384    0.6100
      6 O6         -9.8651   -1.5129   57.1963 O.2     1  ZINC001018118384   -0.5400
      7 N7        -10.7753    0.4716   57.6060 N.am    1  ZINC001018118384   -0.5900
      8 C8        -11.7988    1.2686   58.2961 C.3     1  ZINC001018118384    0.0700
      9 C9        -11.1070    2.3921   59.0744 C.3     1  ZINC001018118384    0.1300
     10 H10       -11.8594    3.0478   59.5127 H       1  ZINC001018118384    0.1100
     11 N11       -10.2826    1.8139   60.1385 N.am    1  ZINC001018118384   -0.7000
     12 C12       -10.8196    1.5719   61.3508 C.2     1  ZINC001018118384    0.6000
     13 O13       -11.9869    1.8346   61.5616 O.2     1  ZINC001018118384   -0.4900
     14 C14        -9.9861    0.9854   62.4268 C.2     1  ZINC001018118384    0.0300
     15 C15        -8.9645    0.0974   62.2653 C.2     1  ZINC001018118384   -0.2300
     16 C16        -8.5036   -0.1423   63.5905 C.2     1  ZINC001018118384    0.4800
     17 O17        -7.5923   -0.8778   63.9316 O.2     1  ZINC001018118384   -0.5200
     18 N18        -9.2830    0.6132   64.3902 N.am    1  ZINC001018118384   -0.4500
     19 C19        -9.1611    0.6785   65.8487 C.3     1  ZINC001018118384    0.1100
     20 O20       -10.0925    1.2340   63.7410 O.3     1  ZINC001018118384    0.0000
     21 C21       -10.2208    3.1970   58.1211 C.3     1  ZINC001018118384   -0.1300
     22 C22        -9.1437    2.2844   57.5303 C.3     1  ZINC001018118384   -0.1300
     23 C23        -9.8094    1.1604   56.7392 C.3     1  ZINC001018118384    0.1400
     24 H24       -10.3324    1.5789   55.8793 H       1  ZINC001018118384    0.0700
     25 C25        -8.7456    0.1704   56.2604 C.3     1  ZINC001018118384   -0.1400
     26 C26       -11.4142   -2.2254   59.7880 C.2     1  ZINC001018118384    0.0400
     27 N27       -12.5935   -2.6784   60.2749 N.pl3   1  ZINC001018118384   -0.5600
     28 H28       -15.5119   -1.7727   60.1599 H       1  ZINC001018118384    0.0900
     29 H29       -15.5107   -2.6289   58.5995 H       1  ZINC001018118384    0.1000
     30 H30       -15.1714   -3.5188   60.1033 H       1  ZINC001018118384    0.0800
     31 H31       -12.4824    1.6984   57.5639 H       1  ZINC001018118384    0.0800
     32 H32       -12.3526    0.6327   58.9868 H       1  ZINC001018118384    0.1500
     33 H33        -9.3503    1.6053   59.9707 H       1  ZINC001018118384    0.4100
     34 H34        -8.5915   -0.3265   61.3447 H       1  ZINC001018118384    0.1900
     35 H35        -8.4677    1.4745   66.1200 H       1  ZINC001018118384    0.0800
     36 H36       -10.1383    0.8830   66.2862 H       1  ZINC001018118384    0.0900
     37 H37        -8.7867   -0.2735   66.2250 H       1  ZINC001018118384    0.1100
     38 H38       -10.8313    3.6063   57.3163 H       1  ZINC001018118384    0.0900
     39 H39        -9.7465    4.0122   58.6674 H       1  ZINC001018118384    0.0800
     40 H40        -8.4985    2.8635   56.8695 H       1  ZINC001018118384    0.0800
     41 H41        -8.5483    1.8553   58.3361 H       1  ZINC001018118384    0.0600
     42 H42        -8.2139   -0.2357   57.1208 H       1  ZINC001018118384    0.0700
     43 H43        -9.2249   -0.6414   55.7132 H       1  ZINC001018118384    0.0800
     44 H44        -8.0404    0.6829   55.6062 H       1  ZINC001018118384    0.0400
     45 H45       -10.4381   -2.3732   60.2257 H       1  ZINC001018118384    0.1900
     46 H46       -12.7157   -3.2007   61.0830 H       1  ZINC001018118384    0.4300
@<TRIPOS>BOND
     1     1     2    1
     2     1    28    1
     3     1    29    1
     4     1    30    1
     5     2    27    1
     6     2     3    2
     7     3     4    1
     8     4     5    1
     9     4    26    2
    10     5     6    2
    11     5     7   am
    12     7    23    1
    13     7     8    1
    14     8     9    1
    15     8    31    1
    16     8    32    1
    17     9    10    1
    18     9    11    1
    19     9    21    1
    20    11    12   am
    21    11    33    1
    22    12    13    2
    23    12    14    1
    24    14    20    1
    25    14    15    2
    26    15    16    1
    27    15    34    1
    28    16    17    2
    29    16    18   am
    30    18    19    1
    31    18    20    1
    32    19    35    1
    33    19    36    1
    34    19    37    1
    35    21    22    1
    36    21    38    1
    37    21    39    1
    38    22    23    1
    39    22    40    1
    40    22    41    1
    41    23    24    1
    42    23    25    1
    43    25    42    1
    44    25    43    1
    45    25    44    1
    46    26    27    1
    47    26    45    1
    48    27    46    1
@<TRIPOS>SUBSTRUCTURE
     1 ZINC001018118384        1 TEMP              0 ****  ****    0 ROOT


##########                                Name:    ZINC000031496632
##########                DOCK_Rotatable_Bonds:                   8
##########                         Heavy_Atoms:                  30
##########                    Molecular_Weight:             423.539
##########                DOCK_Rotatable_Bonds:                   8
##########                       Formal_Charge:          -0.0100009
##########                     HBond_Acceptors:                   8
##########                        HBond_Donors:                   1
##########                         Heavy_Atoms:                  30
##########                          Grid_Score:          -24.502642
##########                     Grid_vdw_energy:          -24.270807
##########                      Grid_es_energy:           -0.231834
##########           Internal_energy_repulsive:           75.106689

@<TRIPOS>MOLECULE
ZINC000031496632
 55 58 1 0 0
SMALL
USER_CHARGES


@<TRIPOS>ATOM
      1 C1         -6.8134    3.0629   51.0385 C.3     1  ZINC000031496632   -0.1600
      2 C2         -7.3353    1.7874   51.7030 C.3     1  ZINC000031496632    0.1600
      3 C3         -6.3007    1.2756   52.7072 C.3     1  ZINC000031496632   -0.1600
      4 N4         -8.5904    2.0785   52.4004 N.pl3   1  ZINC000031496632   -0.3900
      5 N5         -9.2285    3.3222   52.4342 N.2     1  ZINC000031496632   -0.2300
      6 C6        -10.3215    3.2454   53.1381 C.2     1  ZINC000031496632    0.0800
      7 C7        -10.4448    1.8729   53.6168 C.ar    1  ZINC000031496632   -0.2100
      8 C8        -11.3841    1.1946   54.4018 C.ar    1  ZINC000031496632    0.0100
      9 C9        -11.1668   -0.1497   54.6607 C.ar    1  ZINC000031496632    0.0500
     10 N10       -12.0763   -0.8759   55.4406 N.am    1  ZINC000031496632   -0.6600
     11 C11       -11.8043   -1.1244   56.7370 C.2     1  ZINC000031496632    0.5500
     12 O12       -10.7692   -0.7182   57.2299 O.2     1  ZINC000031496632   -0.4900
     13 C13       -12.7609   -1.8883   57.5574 C.ar    1  ZINC000031496632   -0.1300
     14 C14       -13.1837   -3.1552   57.1474 C.ar    1  ZINC000031496632   -0.0600
     15 C15       -14.0784   -3.8643   57.9189 C.ar    1  ZINC000031496632   -0.1400
     16 C16       -14.5632   -3.3277   59.1013 C.ar    1  ZINC000031496632   -0.0600
     17 C17       -14.1563   -2.0779   59.5202 C.ar    1  ZINC000031496632   -0.1500
     18 C18       -13.2492   -1.3497   58.7593 C.ar    1  ZINC000031496632   -0.0600
     19 S19       -12.7269    0.2467   59.2915 S.3     1  ZINC000031496632    0.0900
     20 C20       -13.9654    0.6854   60.5422 C.3     1  ZINC000031496632   -0.2000
     21 C21       -13.8293    2.1446   60.8937 C.2     1  ZINC000031496632    0.5500
     22 O22       -14.8027    2.7772   61.2446 O.2     1  ZINC000031496632   -0.5200
     23 N23       -12.6258    2.7465   60.8177 N.am    1  ZINC000031496632   -0.6200
     24 C24       -11.3709    2.1036   60.4012 C.3     1  ZINC000031496632    0.1000
     25 C25       -10.2578    3.1685   60.4937 C.3     1  ZINC000031496632   -0.1300
     26 C26       -10.8435    4.1970   61.4969 C.3     1  ZINC000031496632   -0.1300
     27 C27       -12.3509    4.1603   61.1324 C.3     1  ZINC000031496632    0.1000
     28 C28       -10.0348   -0.7720   54.1370 C.ar    1  ZINC000031496632    0.1600
     29 N29        -9.1667   -0.1125   53.4023 N.ar    1  ZINC000031496632   -0.4900
     30 C30        -9.3278    1.1737   53.1177 C.ar    1  ZINC000031496632    0.3000
     31 H31        -5.8795    2.8465   50.5197 H       1  ZINC000031496632    0.0800
     32 H32        -7.5504    3.4277   50.3230 H       1  ZINC000031496632    0.0600
     33 H33        -6.6383    3.8236   51.7993 H       1  ZINC000031496632    0.0700
     34 H34        -7.5102    1.0268   50.9421 H       1  ZINC000031496632    0.1100
     35 H35        -5.3669    1.0591   52.1884 H       1  ZINC000031496632    0.0800
     36 H36        -6.1256    2.0362   53.4681 H       1  ZINC000031496632    0.0700
     37 H37        -6.6724    0.3669   53.1807 H       1  ZINC000031496632    0.0600
     38 H38       -11.0121    4.0527   53.3329 H       1  ZINC000031496632    0.2000
     39 H39       -12.2521    1.7034   54.7946 H       1  ZINC000031496632    0.1500
     40 H40       -12.9017   -1.1999   55.0475 H       1  ZINC000031496632    0.4100
     41 H41       -12.8100   -3.5782   56.2267 H       1  ZINC000031496632    0.1300
     42 H42       -14.4040   -4.8436   57.6003 H       1  ZINC000031496632    0.1300
     43 H43       -15.2644   -3.8917   59.6985 H       1  ZINC000031496632    0.1300
     44 H44       -14.5394   -1.6668   60.4426 H       1  ZINC000031496632    0.1300
     45 H45       -14.9636    0.4988   60.1460 H       1  ZINC000031496632    0.1100
     46 H46       -13.8100    0.0804   61.4354 H       1  ZINC000031496632    0.1100
     47 H47       -11.1430    1.2703   61.0660 H       1  ZINC000031496632    0.0700
     48 H48       -11.4595    1.7480   59.3747 H       1  ZINC000031496632    0.0700
     49 H49        -9.3377    2.7319   60.8821 H       1  ZINC000031496632    0.0900
     50 H50       -10.0860    3.6320   59.5223 H       1  ZINC000031496632    0.0800
     51 H51       -10.6789    3.8767   62.5257 H       1  ZINC000031496632    0.0800
     52 H52       -10.4263    5.1896   61.3269 H       1  ZINC000031496632    0.0900
     53 H53       -12.5473    4.7923   60.2664 H       1  ZINC000031496632    0.0700
     54 H54       -12.9544    4.4806   61.9817 H       1  ZINC000031496632    0.0800
     55 H55        -9.8670   -1.8195   54.3396 H       1  ZINC000031496632    0.1700
@<TRIPOS>BOND
     1     1     2    1
     2     1    31    1
     3     1    32    1
     4     1    33    1
     5     2     3    1
     6     2     4    1
     7     2    34    1
     8     3    35    1
     9     3    36    1
    10     3    37    1
    11     4    30    1
    12     4     5    1
    13     5     6    2
    14     6     7    1
    15     6    38    1
    16     7    30   ar
    17     7     8   ar
    18     8     9   ar
    19     8    39    1
    20     9    10    1
    21     9    28   ar
    22    10    11   am
    23    10    40    1
    24    11    12    2
    25    11    13    1
    26    13    18   ar
    27    13    14   ar
    28    14    15   ar
    29    14    41    1
    30    15    16   ar
    31    15    42    1
    32    16    17   ar
    33    16    43    1
    34    17    18   ar
    35    17    44    1
    36    18    19    1
    37    19    20    1
    38    20    21    1
    39    20    45    1
    40    20    46    1
    41    21    22    2
    42    21    23   am
    43    23    27    1
    44    23    24    1
    45    24    25    1
    46    24    47    1
    47    24    48    1
    48    25    26    1
    49    25    49    1
    50    25    50    1
    51    26    27    1
    52    26    51    1
    53    26    52    1
    54    27    53    1
    55    27    54    1
    56    28    29   ar
    57    28    55    1
    58    29    30   ar
@<TRIPOS>SUBSTRUCTURE
     1 ZINC000031496632        1 TEMP              0 ****  ****    0 ROOT


##########                                Name:    ZINC000942661662
##########                DOCK_Rotatable_Bonds:                   6
##########                         Heavy_Atoms:                  25
##########                    Molecular_Weight:             343.426
##########                DOCK_Rotatable_Bonds:                   6
##########                       Formal_Charge:           0.0399997
##########                     HBond_Acceptors:                   6
##########                        HBond_Donors:                   1
##########                         Heavy_Atoms:                  25
##########                          Grid_Score:          -24.484695
##########                     Grid_vdw_energy:          -23.401558
##########                      Grid_es_energy:           -1.083138
##########           Internal_energy_repulsive:          156.417526

@<TRIPOS>MOLECULE
ZINC000942661662
 50 52 1 0 0
SMALL
USER_CHARGES


@<TRIPOS>ATOM
      1 C1        -11.2742    2.5806   55.6988 C.3     1  ZINC000942661662   -0.1700
      2 C2        -11.2577    1.2979   54.8650 C.3     1  ZINC000942661662    0.1000
      3 N3         -9.9254    0.6917   54.9278 N.am    1  ZINC000942661662   -0.6000
      4 C4         -8.8948    1.2605   54.2717 C.2     1  ZINC000942661662    0.6000
      5 O5         -7.7887    0.7573   54.3239 O.2     1  ZINC000942661662   -0.5200
      6 C6         -9.1079    2.4922   53.4909 C.2     1  ZINC000942661662   -0.2400
      7 C7         -8.1782    3.1828   52.7700 C.2     1  ZINC000942661662    0.0700
      8 C8         -6.7235    2.8163   52.6268 C.3     1  ZINC000942661662   -0.0900
      9 O9         -8.7768    4.2396   52.2123 O.3     1  ZINC000942661662   -0.1700
     10 C10       -10.0786    4.2793   52.5367 C.2     1  ZINC000942661662   -0.0300
     11 C11       -10.3682    3.2298   53.3211 C.2     1  ZINC000942661662   -0.1900
     12 C12        -9.7136   -0.5327   55.7040 C.3     1  ZINC000942661662    0.1400
     13 H13        -8.6520   -0.7695   55.7742 H       1  ZINC000942661662    0.1100
     14 C14       -10.5094   -1.7193   55.0990 C.3     1  ZINC000942661662   -0.1400
     15 C15       -10.7370   -2.6395   56.3168 C.3     1  ZINC000942661662    0.1000
     16 N16       -10.6164   -1.8062   57.5220 N.am    1  ZINC000942661662   -0.6200
     17 C17       -10.7284   -2.2418   58.7926 C.2     1  ZINC000942661662    0.6100
     18 O18       -10.9473   -3.4180   59.0154 O.2     1  ZINC000942661662   -0.5200
     19 C19       -10.5866   -1.2983   59.9066 C.2     1  ZINC000942661662   -0.0600
     20 C20       -11.4983   -0.3330   60.2780 C.2     1  ZINC000942661662   -0.0700
     21 C21       -12.8229   -0.0508   59.6172 C.3     1  ZINC000942661662   -0.0900
     22 C22       -10.9623    0.3344   61.3838 C.2     1  ZINC000942661662   -0.2100
     23 C23        -9.7594   -0.2224   61.6622 C.2     1  ZINC000942661662    0.0500
     24 C24        -8.8385    0.1941   62.7802 C.3     1  ZINC000942661662   -0.0900
     25 N25        -9.5217   -1.2193   60.7753 N.pl3   1  ZINC000942661662   -0.5400
     26 C26       -10.3506   -0.4151   57.1111 C.3     1  ZINC000942661662    0.0900
     27 H27       -12.2654    3.0316   55.6521 H       1  ZINC000942661662    0.0700
     28 H28       -11.0313    2.3437   56.7346 H       1  ZINC000942661662    0.0600
     29 H29       -10.5377    3.2802   55.3037 H       1  ZINC000942661662    0.0600
     30 H30       -11.9943    0.5982   55.2600 H       1  ZINC000942661662    0.0900
     31 H31       -11.5006    1.5347   53.8291 H       1  ZINC000942661662    0.0800
     32 H32        -6.5967    2.1635   51.7630 H       1  ZINC000942661662    0.0900
     33 H33        -6.1327    3.7217   52.4879 H       1  ZINC000942661662    0.0900
     34 H34        -6.3890    2.2984   53.5257 H       1  ZINC000942661662    0.1000
     35 H35       -10.7818    5.0327   52.2138 H       1  ZINC000942661662    0.2100
     36 H36       -11.3292    2.9821   53.7472 H       1  ZINC000942661662    0.1600
     37 H37       -11.4605   -1.3776   54.6906 H       1  ZINC000942661662    0.1000
     38 H38        -9.9214   -2.2286   54.3354 H       1  ZINC000942661662    0.0900
     39 H39       -11.7333   -3.0790   56.2681 H       1  ZINC000942661662    0.0700
     40 H40        -9.9829   -3.4262   56.3331 H       1  ZINC000942661662    0.0700
     41 H41       -13.5990   -0.6557   60.0860 H       1  ZINC000942661662    0.0700
     42 H42       -13.0676    1.0054   59.7303 H       1  ZINC000942661662    0.0600
     43 H43       -12.7602   -0.2979   58.5574 H       1  ZINC000942661662    0.0800
     44 H44       -11.4252    1.1495   61.9202 H       1  ZINC000942661662    0.1400
     45 H45        -9.0738   -0.3788   63.6771 H       1  ZINC000942661662    0.0800
     46 H46        -7.8052    0.0053   62.4891 H       1  ZINC000942661662    0.0700
     47 H47        -8.9705    1.2569   62.9828 H       1  ZINC000942661662    0.0900
     48 H48        -8.7306   -1.7800   60.7529 H       1  ZINC000942661662    0.4100
     49 H49        -9.6563    0.0593   57.8046 H       1  ZINC000942661662    0.0800
     50 H50       -11.2815    0.1496   57.0594 H       1  ZINC000942661662    0.1000
@<TRIPOS>BOND
     1     1     2    1
     2     1    27    1
     3     1    28    1
     4     1    29    1
     5     2     3    1
     6     2    30    1
     7     2    31    1
     8     3     4   am
     9     3    12    1
    10     4     5    2
    11     4     6    1
    12     6    11    1
    13     6     7    2
    14     7     8    1
    15     7     9    1
    16     8    32    1
    17     8    33    1
    18     8    34    1
    19     9    10    1
    20    10    11    2
    21    10    35    1
    22    11    36    1
    23    12    13    1
    24    12    26    1
    25    12    14    1
    26    14    15    1
    27    14    37    1
    28    14    38    1
    29    15    16    1
    30    15    39    1
    31    15    40    1
    32    16    17   am
    33    16    26    1
    34    17    18    2
    35    17    19    1
    36    19    25    1
    37    19    20    2
    38    20    21    1
    39    20    22    1
    40    21    41    1
    41    21    42    1
    42    21    43    1
    43    22    23    2
    44    22    44    1
    45    23    24    1
    46    23    25    1
    47    24    45    1
    48    24    46    1
    49    24    47    1
    50    25    48    1
    51    26    49    1
    52    26    50    1
@<TRIPOS>SUBSTRUCTURE
     1 ZINC000942661662        1 TEMP              0 ****  ****    0 ROOT


##########                                Name:    ZINC001345266033
##########                DOCK_Rotatable_Bonds:                   4
##########                         Heavy_Atoms:                  29
##########                    Molecular_Weight:               389.5
##########                DOCK_Rotatable_Bonds:                   4
##########                       Formal_Charge:          -0.0100001
##########                     HBond_Acceptors:                   6
##########                        HBond_Donors:                   0
##########                         Heavy_Atoms:                  29
##########                          Grid_Score:          -24.399822
##########                     Grid_vdw_energy:          -24.780697
##########                      Grid_es_energy:            0.380874
##########           Internal_energy_repulsive:           10.169047

@<TRIPOS>MOLECULE
ZINC001345266033
 56 61 1 0 0
SMALL
USER_CHARGES


@<TRIPOS>ATOM
      1 C1         -8.2238   -0.2814   64.4176 C.ar    1  ZINC001345266033   -0.1100
      2 C2         -7.8364   -0.3254   63.0808 C.ar    1  ZINC001345266033   -0.0900
      3 C3         -8.4622    0.4435   62.1431 C.ar    1  ZINC001345266033   -0.1100
      4 C4         -9.5065    1.2857   62.5320 C.ar    1  ZINC001345266033    0.0000
      5 C5         -9.9049    1.3334   63.8927 C.ar    1  ZINC001345266033   -0.1100
      6 C6         -9.2385    0.5290   64.8301 C.ar    1  ZINC001345266033   -0.0900
      7 C7        -10.9580    2.1884   64.2562 C.ar    1  ZINC001345266033    0.1700
      8 N8        -11.5638    2.9294   63.3601 N.ar    1  ZINC001345266033   -0.4800
      9 C9        -11.2455    2.9356   62.0763 C.ar    1  ZINC001345266033    0.0900
     10 C10       -10.2225    2.1367   61.5822 C.ar    1  ZINC001345266033   -0.0700
     11 C11        -9.8703    2.1464   60.1497 C.2     1  ZINC001345266033    0.2300
     12 N12        -8.7953    2.6785   59.6131 N.2     1  ZINC001345266033   -0.2600
     13 N13        -8.8090    2.5034   58.3400 N.2     1  ZINC001345266033   -0.3000
     14 C14        -9.8924    1.8494   57.9857 C.2     1  ZINC001345266033    0.3600
     15 N15       -10.2451    1.4824   56.6991 N.3     1  ZINC001345266033   -0.4600
     16 C16       -11.2721    2.3812   56.1586 C.3     1  ZINC001345266033    0.0600
     17 C17       -11.8017    1.8296   54.8335 C.3     1  ZINC001345266033   -0.1100
     18 C18       -10.6554    1.7733   53.8166 C.3     1  ZINC001345266033   -0.0800
     19 C19        -9.5009    0.9729   54.4288 C.3     1  ZINC001345266033   -0.1300
     20 C20        -9.4296   -0.5216   54.1197 C.3     1  ZINC001345266033   -0.1600
     21 C21        -8.4239    0.4414   53.4848 C.3     1  ZINC001345266033   -0.1700
     22 C22        -9.0654    1.4351   55.8225 C.3     1  ZINC001345266033    0.1100
     23 N23       -10.6023    1.5945   59.1231 N.pl3   1  ZINC001345266033   -0.4600
     24 C24       -11.8814    0.8880   59.2284 C.3     1  ZINC001345266033    0.1000
     25 C25       -11.6748   -0.4324   59.9732 C.3     1  ZINC001345266033   -0.1400
     26 H26       -11.4776   -0.2470   61.0291 H       1  ZINC001345266033    0.1000
     27 C27       -10.5142   -1.2366   59.3384 C.3     1  ZINC001345266033   -0.1500
     28 C28       -11.0643   -2.6853   59.3760 C.3     1  ZINC001345266033    0.0500
     29 O29       -12.4707   -2.5188   59.0949 O.3     1  ZINC001345266033   -0.3700
     30 C30       -12.9058   -1.3442   59.8064 C.3     1  ZINC001345266033    0.0300
     31 H31        -7.7144   -0.9034   65.1388 H       1  ZINC001345266033    0.1300
     32 H32        -7.0287   -0.9771   62.7818 H       1  ZINC001345266033    0.1300
     33 H33        -8.1526    0.4015   61.1093 H       1  ZINC001345266033    0.1600
     34 H34        -9.5282    0.5519   65.8703 H       1  ZINC001345266033    0.1400
     35 H35       -11.2733    2.2359   65.2880 H       1  ZINC001345266033    0.1700
     36 H36       -11.7923    3.5745   61.3986 H       1  ZINC001345266033    0.1700
     37 H37       -12.0932    2.4626   56.8709 H       1  ZINC001345266033    0.0700
     38 H38       -10.8392    3.3677   55.9929 H       1  ZINC001345266033    0.0500
     39 H39       -12.1996    0.8268   54.9894 H       1  ZINC001345266033    0.0800
     40 H40       -12.5906    2.4807   54.4572 H       1  ZINC001345266033    0.0800
     41 H41       -10.9980    1.2831   52.9054 H       1  ZINC001345266033    0.0700
     42 H42       -10.3190    2.7845   53.5878 H       1  ZINC001345266033    0.0700
     43 H43        -9.0663   -1.1818   54.9072 H       1  ZINC001345266033    0.0900
     44 H44       -10.2025   -0.9396   53.4746 H       1  ZINC001345266033    0.0900
     45 H45        -8.5350    0.6570   52.4221 H       1  ZINC001345266033    0.1000
     46 H46        -7.3989    0.4148   53.8547 H       1  ZINC001345266033    0.1000
     47 H47        -8.6204    2.4278   55.7554 H       1  ZINC001345266033    0.0600
     48 H48        -8.3368    0.7333   56.2286 H       1  ZINC001345266033    0.0800
     49 H49       -12.5939    1.5058   59.7752 H       1  ZINC001345266033    0.1100
     50 H50       -12.2678    0.6852   58.2297 H       1  ZINC001345266033    0.1100
     51 H51       -10.3340   -0.9155   58.3125 H       1  ZINC001345266033    0.0800
     52 H52        -9.6074   -1.1493   59.9369 H       1  ZINC001345266033    0.0900
     53 H53       -10.5892   -3.2963   58.6086 H       1  ZINC001345266033    0.1000
     54 H54       -10.9195   -3.1253   60.3627 H       1  ZINC001345266033    0.0600
     55 H55       -13.2968   -1.6266   60.7839 H       1  ZINC001345266033    0.0600
     56 H56       -13.6749   -0.8270   59.2327 H       1  ZINC001345266033    0.0900
@<TRIPOS>BOND
     1     1     6   ar
     2     1     2   ar
     3     1    31    1
     4     2     3   ar
     5     2    32    1
     6     3     4   ar
     7     3    33    1
     8     4    10   ar
     9     4     5   ar
    10     5     6   ar
    11     5     7   ar
    12     6    34    1
    13     7     8   ar
    14     7    35    1
    15     8     9   ar
    16     9    10   ar
    17     9    36    1
    18    10    11    1
    19    11    23    1
    20    11    12    2
    21    12    13    1
    22    13    14    2
    23    14    15    1
    24    14    23    1
    25    15    22    1
    26    15    16    1
    27    16    17    1
    28    16    37    1
    29    16    38    1
    30    17    18    1
    31    17    39    1
    32    17    40    1
    33    18    19    1
    34    18    41    1
    35    18    42    1
    36    19    21    1
    37    19    20    1
    38    19    22    1
    39    20    21    1
    40    20    43    1
    41    20    44    1
    42    21    45    1
    43    21    46    1
    44    22    47    1
    45    22    48    1
    46    23    24    1
    47    24    25    1
    48    24    49    1
    49    24    50    1
    50    25    26    1
    51    25    30    1
    52    25    27    1
    53    27    28    1
    54    27    51    1
    55    27    52    1
    56    28    29    1
    57    28    53    1
    58    28    54    1
    59    29    30    1
    60    30    55    1
    61    30    56    1
@<TRIPOS>SUBSTRUCTURE
     1 ZINC001345266033        1 TEMP              0 ****  ****    0 ROOT


##########                                Name:    ZINC001179023006
##########                DOCK_Rotatable_Bonds:                   3
##########                         Heavy_Atoms:                  25
##########                    Molecular_Weight:             340.465
##########                DOCK_Rotatable_Bonds:                   3
##########                       Formal_Charge:          -0.0100005
##########                     HBond_Acceptors:                   4
##########                        HBond_Donors:                   1
##########                         Heavy_Atoms:                  25
##########                          Grid_Score:          -24.389521
##########                     Grid_vdw_energy:          -23.582657
##########                      Grid_es_energy:           -0.806864
##########           Internal_energy_repulsive:           40.415630

@<TRIPOS>MOLECULE
ZINC001179023006
 53 56 1 0 0
SMALL
USER_CHARGES


@<TRIPOS>ATOM
      1 C1         -9.6712    0.7085   61.7283 C.3     1  ZINC001179023006   -0.1500
      2 C2         -8.9196   -0.3159   60.8759 C.3     1  ZINC001179023006   -0.1100
      3 C3         -9.8444   -0.8404   59.7757 C.3     1  ZINC001179023006   -0.1100
      4 C4        -10.3376    0.2480   58.8576 C.2     1  ZINC001179023006    0.5400
      5 O5        -11.5139    0.5433   58.8442 O.2     1  ZINC001179023006   -0.5400
      6 N6         -9.4716    0.8936   58.0514 N.am    1  ZINC001179023006   -0.5900
      7 C7         -8.0428    0.5521   58.0601 C.3     1  ZINC001179023006    0.1000
      8 C8         -7.2276    1.8230   58.2873 C.3     1  ZINC001179023006   -0.1200
      9 C9         -7.6090    2.8665   57.2272 C.3     1  ZINC001179023006   -0.0500
     10 C10        -9.0958    3.2132   57.3944 C.3     1  ZINC001179023006   -0.1100
     11 C11        -9.9366    1.9570   57.1506 C.3     1  ZINC001179023006    0.0900
     12 C12        -6.7803    4.1225   57.4459 C.3     1  ZINC001179023006   -0.0800
     13 C13        -5.3116    3.8295   57.4100 C.ar    1  ZINC001179023006   -0.0700
     14 C14        -4.5987    3.8573   58.6044 C.ar    1  ZINC001179023006   -0.1100
     15 C15        -3.2569    3.5307   58.6139 C.ar    1  ZINC001179023006   -0.1100
     16 C16        -2.6179    3.1772   57.4403 C.ar    1  ZINC001179023006   -0.1200
     17 C17        -3.3261    3.1642   56.2518 C.ar    1  ZINC001179023006   -0.1000
     18 C18        -4.6677    3.5024   56.2537 C.ar    1  ZINC001179023006   -0.1100
     19 C19        -5.4372    3.5176   54.9575 C.3     1  ZINC001179023006    0.1400
     20 N20        -6.4891    2.5253   54.9507 N.am    1  ZINC001179023006   -0.7000
     21 C21        -7.3922    2.2845   55.8660 C.2     1  ZINC001179023006    0.5200
     22 O22        -8.2000    1.4352   55.5550 O.2     1  ZINC001179023006   -0.5500
     23 C23       -10.9613   -1.7604   60.2962 C.3     1  ZINC001179023006   -0.1200
     24 C24       -10.7160   -2.6299   59.0497 C.3     1  ZINC001179023006   -0.1400
     25 C25        -9.2854   -2.0659   59.0335 C.3     1  ZINC001179023006   -0.1300
     26 H26        -9.0010    1.1104   62.4882 H       1  ZINC001179023006    0.0600
     27 H27       -10.0273    1.5190   61.0924 H       1  ZINC001179023006    0.0500
     28 H28       -10.5207    0.2258   62.2116 H       1  ZINC001179023006    0.0600
     29 H29        -8.5968   -1.1453   61.5052 H       1  ZINC001179023006    0.0700
     30 H30        -8.0483    0.1573   60.4233 H       1  ZINC001179023006    0.0700
     31 H31        -7.8417   -0.1575   58.8627 H       1  ZINC001179023006    0.0900
     32 H32        -7.7668    0.1108   57.1023 H       1  ZINC001179023006    0.0800
     33 H33        -6.1649    1.5945   58.2074 H       1  ZINC001179023006    0.0800
     34 H34        -7.4415    2.2180   59.2804 H       1  ZINC001179023006    0.0800
     35 H35        -9.3736    3.9826   56.6740 H       1  ZINC001179023006    0.0800
     36 H36        -9.2736    3.5798   58.4054 H       1  ZINC001179023006    0.0800
     37 H37        -9.8212    1.6354   56.1155 H       1  ZINC001179023006    0.1200
     38 H38       -10.9854    2.1744   57.3528 H       1  ZINC001179023006    0.0800
     39 H39        -7.0178    4.8456   56.6655 H       1  ZINC001179023006    0.0800
     40 H40        -7.0337    4.5515   58.4153 H       1  ZINC001179023006    0.0900
     41 H41        -5.0942    4.1337   59.5234 H       1  ZINC001179023006    0.1200
     42 H42        -2.7048    3.5518   59.5418 H       1  ZINC001179023006    0.1200
     43 H43        -1.5709    2.9123   57.4512 H       1  ZINC001179023006    0.1300
     44 H44        -2.8350    2.8923   55.3292 H       1  ZINC001179023006    0.1300
     45 H45        -4.7519    3.3151   54.1345 H       1  ZINC001179023006    0.0900
     46 H46        -5.8781    4.5045   54.8171 H       1  ZINC001179023006    0.0800
     47 H47        -6.5303    1.9625   54.1618 H       1  ZINC001179023006    0.4000
     48 H48       -10.7143   -2.2602   61.2328 H       1  ZINC001179023006    0.0900
     49 H49       -11.9434   -1.2878   60.3137 H       1  ZINC001179023006    0.0800
     50 H50       -11.3124   -2.3324   58.1872 H       1  ZINC001179023006    0.0800
     51 H51       -10.7609   -3.7011   59.2461 H       1  ZINC001179023006    0.0700
     52 H52        -8.9166   -1.8397   58.0330 H       1  ZINC001179023006    0.0700
     53 H53        -8.5793   -2.6495   59.6242 H       1  ZINC001179023006    0.0900
@<TRIPOS>BOND
     1     1     2    1
     2     1    26    1
     3     1    27    1
     4     1    28    1
     5     2     3    1
     6     2    29    1
     7     2    30    1
     8     3    25    1
     9     3     4    1
    10     3    23    1
    11     4     5    2
    12     4     6   am
    13     6    11    1
    14     6     7    1
    15     7     8    1
    16     7    31    1
    17     7    32    1
    18     8     9    1
    19     8    33    1
    20     8    34    1
    21     9    21    1
    22     9    10    1
    23     9    12    1
    24    10    11    1
    25    10    35    1
    26    10    36    1
    27    11    37    1
    28    11    38    1
    29    12    13    1
    30    12    39    1
    31    12    40    1
    32    13    18   ar
    33    13    14   ar
    34    14    15   ar
    35    14    41    1
    36    15    16   ar
    37    15    42    1
    38    16    17   ar
    39    16    43    1
    40    17    18   ar
    41    17    44    1
    42    18    19    1
    43    19    20    1
    44    19    45    1
    45    19    46    1
    46    20    21   am
    47    20    47    1
    48    21    22    2
    49    23    24    1
    50    23    48    1
    51    23    49    1
    52    24    25    1
    53    24    50    1
    54    24    51    1
    55    25    52    1
    56    25    53    1
@<TRIPOS>SUBSTRUCTURE
     1 ZINC001179023006        1 TEMP              0 ****  ****    0 ROOT


##########                                Name:    ZINC001011267435
##########                DOCK_Rotatable_Bonds:                   7
##########                         Heavy_Atoms:                  24
##########                    Molecular_Weight:             331.458
##########                DOCK_Rotatable_Bonds:                   7
##########                       Formal_Charge:        -4.47035e-08
##########                     HBond_Acceptors:                   5
##########                        HBond_Donors:                   0
##########                         Heavy_Atoms:                  24
##########                          Grid_Score:          -24.384169
##########                     Grid_vdw_energy:          -24.389235
##########                      Grid_es_energy:            0.005066
##########           Internal_energy_repulsive:           56.460823

@<TRIPOS>MOLECULE
ZINC001011267435
 53 54 1 0 0
SMALL
USER_CHARGES


@<TRIPOS>ATOM
      1 C1         -0.4207    2.1598   58.2218 C.3     1  ZINC001011267435   -0.1500
      2 C2         -1.7258    2.9338   58.0257 C.3     1  ZINC001011267435   -0.1200
      3 C3         -2.3750    2.5129   56.7058 C.3     1  ZINC001011267435   -0.0700
      4 C4         -3.6599    3.2762   56.5120 C.ar    1  ZINC001011267435    0.1300
      5 C5         -4.4969    3.4859   57.5905 C.ar    1  ZINC001011267435   -0.1200
      6 C6         -5.6863    4.1957   57.3978 C.ar    1  ZINC001011267435   -0.0800
      7 C7         -6.6149    4.4455   58.5247 C.2     1  ZINC001011267435    0.5600
      8 O8         -6.3929    5.3492   59.3061 O.2     1  ZINC001011267435   -0.5200
      9 N9         -7.7062    3.6704   58.6832 N.am    1  ZINC001011267435   -0.6100
     10 C10        -7.9841    2.5702   57.7494 C.3     1  ZINC001011267435    0.0700
     11 C11        -8.1344    1.2721   58.5524 C.3     1  ZINC001011267435    0.1000
     12 N12        -9.0673    1.5118   59.6623 N.am    1  ZINC001011267435   -0.6200
     13 C13       -10.1580    0.7363   59.8214 C.2     1  ZINC001011267435    0.5300
     14 O14       -10.9208    0.9440   60.7412 O.2     1  ZINC001011267435   -0.5300
     15 C15       -10.4300   -0.3887   58.8564 C.3     1  ZINC001011267435   -0.1100
     16 H16        -9.9880   -0.1520   57.8886 H       1  ZINC001011267435    0.0900
     17 C17       -11.9409   -0.5695   58.6964 C.3     1  ZINC001011267435   -0.1500
     18 C18        -9.8158   -1.6824   59.3949 C.3     1  ZINC001011267435   -0.0800
     19 C19        -9.8602   -2.7589   58.3086 C.3     1  ZINC001011267435   -0.1500
     20 C20        -8.3628   -1.4268   59.8005 C.3     1  ZINC001011267435   -0.1500
     21 C21        -8.7893    2.6122   60.5961 C.3     1  ZINC001011267435    0.0900
     22 C22        -8.6361    3.9067   59.7964 C.3     1  ZINC001011267435    0.1000
     23 C23        -5.9744    4.6634   56.1122 C.ar    1  ZINC001011267435   -0.1600
     24 C24        -5.0800    4.4082   55.0905 C.ar    1  ZINC001011267435    0.1100
     25 N25        -3.9671    3.7393   55.3167 N.ar    1  ZINC001011267435   -0.4600
     26 H26        -0.6323    1.0908   58.2456 H       1  ZINC001011267435    0.0600
     27 H27         0.2582    2.3776   57.3973 H       1  ZINC001011267435    0.0500
     28 H28         0.0418    2.4597   59.1621 H       1  ZINC001011267435    0.0600
     29 H29        -2.4048    2.7161   58.8502 H       1  ZINC001011267435    0.0700
     30 H30        -1.5143    4.0029   58.0019 H       1  ZINC001011267435    0.0600
     31 H31        -1.6957    2.7297   55.8814 H       1  ZINC001011267435    0.0800
     32 H32        -2.5875    1.4441   56.7300 H       1  ZINC001011267435    0.0900
     33 H33        -4.2370    3.1070   58.5679 H       1  ZINC001011267435    0.1400
     34 H34        -8.9079    2.7743   57.2080 H       1  ZINC001011267435    0.0800
     35 H35        -7.1584    2.4710   57.0448 H       1  ZINC001011267435    0.1100
     36 H36        -8.5275    0.4863   57.9073 H       1  ZINC001011267435    0.1100
     37 H37        -7.1641    0.9725   58.9484 H       1  ZINC001011267435    0.0700
     38 H38       -12.1383   -1.4351   58.0641 H       1  ZINC001011267435    0.0800
     39 H39       -12.3940   -0.7239   59.6757 H       1  ZINC001011267435    0.0600
     40 H40       -12.3667    0.3218   58.2356 H       1  ZINC001011267435    0.0600
     41 H41       -10.3816   -2.0191   60.2635 H       1  ZINC001011267435    0.0800
     42 H42        -9.4226   -3.6805   58.6923 H       1  ZINC001011267435    0.0600
     43 H43       -10.8953   -2.9409   58.0196 H       1  ZINC001011267435    0.0600
     44 H44        -9.2943   -2.4221   57.4400 H       1  ZINC001011267435    0.0600
     45 H45        -8.3312   -0.6599   60.5744 H       1  ZINC001011267435    0.0600
     46 H46        -7.9252   -2.3484   60.1841 H       1  ZINC001011267435    0.0600
     47 H47        -7.7970   -1.0900   58.9318 H       1  ZINC001011267435    0.0500
     48 H48        -9.6150    2.7114   61.3007 H       1  ZINC001011267435    0.1000
     49 H49        -7.8656    2.4079   61.1376 H       1  ZINC001011267435    0.0800
     50 H50        -8.2430    4.6915   60.4427 H       1  ZINC001011267435    0.1100
     51 H51        -9.6053    4.2080   59.3989 H       1  ZINC001011267435    0.0800
     52 H52        -6.8826    5.2155   55.9206 H       1  ZINC001011267435    0.1500
     53 H53        -5.2938    4.7650   54.0938 H       1  ZINC001011267435    0.1700
@<TRIPOS>BOND
     1     1     2    1
     2     1    26    1
     3     1    27    1
     4     1    28    1
     5     2     3    1
     6     2    29    1
     7     2    30    1
     8     3     4    1
     9     3    31    1
    10     3    32    1
    11     4    25   ar
    12     4     5   ar
    13     5     6   ar
    14     5    33    1
    15     6     7    1
    16     6    23   ar
    17     7     8    2
    18     7     9   am
    19     9    22    1
    20     9    10    1
    21    10    11    1
    22    10    34    1
    23    10    35    1
    24    11    12    1
    25    11    36    1
    26    11    37    1
    27    12    13   am
    28    12    21    1
    29    13    14    2
    30    13    15    1
    31    15    16    1
    32    15    17    1
    33    15    18    1
    34    17    38    1
    35    17    39    1
    36    17    40    1
    37    18    19    1
    38    18    20    1
    39    18    41    1
    40    19    42    1
    41    19    43    1
    42    19    44    1
    43    20    45    1
    44    20    46    1
    45    20    47    1
    46    21    22    1
    47    21    48    1
    48    21    49    1
    49    22    50    1
    50    22    51    1
    51    23    24   ar
    52    23    52    1
    53    24    25   ar
    54    24    53    1
@<TRIPOS>SUBSTRUCTURE
     1 ZINC001011267435        1 TEMP              0 ****  ****    0 ROOT


##########                                Name:    ZINC001199210165
##########                DOCK_Rotatable_Bonds:                   5
##########                         Heavy_Atoms:                  23
##########                    Molecular_Weight:             375.225
##########                DOCK_Rotatable_Bonds:                   5
##########                       Formal_Charge:         -0.00999999
##########                     HBond_Acceptors:                   6
##########                        HBond_Donors:                   2
##########                         Heavy_Atoms:                  23
##########                          Grid_Score:          -24.377979
##########                     Grid_vdw_energy:          -24.930872
##########                      Grid_es_energy:            0.552892
##########           Internal_energy_repulsive:           13.671097

@<TRIPOS>MOLECULE
ZINC001199210165
 38 40 1 0 0
SMALL
USER_CHARGES


@<TRIPOS>ATOM
      1 C1         -8.6497    3.2871   66.7787 C.3     1  ZINC001199210165   -0.1700
      2 C2        -10.0461    2.6618   66.7711 C.3     1  ZINC001199210165    0.0800
      3 C3        -11.0652    3.6834   67.2794 C.3     1  ZINC001199210165   -0.1500
      4 O4        -10.3862    2.2719   65.4390 O.3     1  ZINC001199210165   -0.3000
      5 C5         -9.5770    1.3642   64.8371 C.ar    1  ZINC001199210165    0.3300
      6 C6         -9.6502    1.1846   63.4624 C.ar    1  ZINC001199210165   -0.1300
      7 C7         -8.8110    0.2467   62.8576 C.ar    1  ZINC001199210165   -0.0600
      8 C8         -8.8527    0.0206   61.3943 C.2     1  ZINC001199210165    0.5700
      9 O9         -8.1312   -0.8159   60.8880 O.2     1  ZINC001199210165   -0.4900
     10 N10        -9.6907    0.7428   60.6245 N.am    1  ZINC001199210165   -0.6600
     11 C11        -9.7301    0.5294   59.2434 C.ar    1  ZINC001199210165    0.2000
     12 C12        -8.7102    1.0342   58.4353 C.ar    1  ZINC001199210165   -0.1500
     13 C13        -8.7317    0.8356   57.0867 C.ar    1  ZINC001199210165   -0.0200
     14 C14        -9.7838    0.1199   56.5041 C.ar    1  ZINC001199210165   -0.1700
     15 C15       -10.1089   -0.2646   55.1335 C.2     1  ZINC001199210165    0.0900
     16 Br16       -9.0905    0.1378   53.5918 Br      1  ZINC001199210165    0.0600
     17 N17       -11.2258   -0.9348   55.1624 N.2     1  ZINC001199210165   -0.2100
     18 N18       -11.6918   -1.0357   56.4773 N.pl3   1  ZINC001199210165   -0.4900
     19 C19       -10.8165   -0.3924   57.3137 C.ar    1  ZINC001199210165    0.1500
     20 C20       -10.7763   -0.1850   58.6890 C.ar    1  ZINC001199210165   -0.1700
     21 C21        -7.9290   -0.4735   63.6712 C.ar    1  ZINC001199210165   -0.1900
     22 C22        -7.9203   -0.2333   65.0301 C.ar    1  ZINC001199210165    0.1400
     23 N23        -8.7241    0.6647   65.5659 N.ar    1  ZINC001199210165   -0.5200
     24 H24        -8.6404    4.1631   66.1301 H       1  ZINC001199210165    0.0600
     25 H25        -8.3903    3.5844   67.7947 H       1  ZINC001199210165    0.0700
     26 H26        -7.9237    2.5593   66.4164 H       1  ZINC001199210165    0.0600
     27 H27       -10.0554    1.7857   67.4195 H       1  ZINC001199210165    0.0900
     28 H28       -11.0559    4.5595   66.6309 H       1  ZINC001199210165    0.0700
     29 H29       -12.0600    3.2379   67.2740 H       1  ZINC001199210165    0.0600
     30 H30       -10.8058    3.9808   68.2955 H       1  ZINC001199210165    0.0800
     31 H31       -10.3456    1.7610   62.8701 H       1  ZINC001199210165    0.1600
     32 H32       -10.2667    1.4106   61.0287 H       1  ZINC001199210165    0.4100
     33 H33        -7.8971    1.5872   58.8821 H       1  ZINC001199210165    0.1500
     34 H34        -7.9384    1.2301   56.4690 H       1  ZINC001199210165    0.1400
     35 H35       -12.5040   -1.4884   56.7532 H       1  ZINC001199210165    0.4500
     36 H36       -11.5600   -0.5775   59.3200 H       1  ZINC001199210165    0.1400
     37 H37        -7.2642   -1.2080   63.2411 H       1  ZINC001199210165    0.1400
     38 H38        -7.2424   -0.7859   65.6638 H       1  ZINC001199210165    0.1700
@<TRIPOS>BOND
     1     1     2    1
     2     1    24    1
     3     1    25    1
     4     1    26    1
     5     2     3    1
     6     2     4    1
     7     2    27    1
     8     3    28    1
     9     3    29    1
    10     3    30    1
    11     4     5    1
    12     5    23   ar
    13     5     6   ar
    14     6     7   ar
    15     6    31    1
    16     7     8    1
    17     7    21   ar
    18     8     9    2
    19     8    10   am
    20    10    11    1
    21    10    32    1
    22    11    20   ar
    23    11    12   ar
    24    12    13   ar
    25    12    33    1
    26    13    14   ar
    27    13    34    1
    28    14    19   ar
    29    14    15    1
    30    15    16    1
    31    15    17    2
    32    17    18    1
    33    18    19    1
    34    18    35    1
    35    19    20   ar
    36    20    36    1
    37    21    22   ar
    38    21    37    1
    39    22    23   ar
    40    22    38    1
@<TRIPOS>SUBSTRUCTURE
     1 ZINC001199210165        1 TEMP              0 ****  ****    0 ROOT


##########                                Name:    ZINC000065993627
##########                DOCK_Rotatable_Bonds:                   7
##########                         Heavy_Atoms:                  28
##########                    Molecular_Weight:             382.462
##########                DOCK_Rotatable_Bonds:                   7
##########                       Formal_Charge:          -0.0200002
##########                     HBond_Acceptors:                   7
##########                        HBond_Donors:                   2
##########                         Heavy_Atoms:                  28
##########                          Grid_Score:          -24.360319
##########                     Grid_vdw_energy:          -25.013821
##########                      Grid_es_energy:            0.653502
##########           Internal_energy_repulsive:           17.752970

@<TRIPOS>MOLECULE
ZINC000065993627
 54 56 1 0 0
SMALL
USER_CHARGES


@<TRIPOS>ATOM
      1 C1         -9.1549   -0.0871   61.3042 C.3     1  ZINC000065993627   -0.1200
      2 C2         -9.8543    0.6343   62.4273 C.ar    1  ZINC000065993627   -0.0700
      3 C3         -9.2435    0.7488   63.6601 C.ar    1  ZINC000065993627   -0.1800
      4 C4         -9.8881    1.4138   64.6954 C.ar    1  ZINC000065993627    0.2000
      5 N5         -9.2692    1.5302   65.9448 N.pl3   1  ZINC000065993627   -0.6400
      6 C6         -8.5940    0.3736   66.5383 C.3     1  ZINC000065993627    0.1000
      7 C7         -9.2963    2.8089   66.6593 C.3     1  ZINC000065993627    0.0900
      8 C8        -11.1467    1.9632   64.4900 C.ar    1  ZINC000065993627   -0.1800
      9 C9        -11.7572    1.8485   63.2566 C.ar    1  ZINC000065993627   -0.0800
     10 C10       -11.1104    1.1888   62.2205 C.ar    1  ZINC000065993627    0.1100
     11 N11       -11.7302    1.0728   60.9684 N.am    1  ZINC000065993627   -0.6800
     12 C12       -11.4824    1.9840   60.0068 C.2     1  ZINC000065993627    0.7000
     13 O13       -10.7212    2.9068   60.2251 O.2     1  ZINC000065993627   -0.5700
     14 N14       -12.0782    1.8725   58.8031 N.am    1  ZINC000065993627   -0.7400
     15 C15       -11.8075    2.8620   57.7572 C.3     1  ZINC000065993627    0.2100
     16 H16       -11.2613    3.7027   58.1850 H       1  ZINC000065993627    0.1000
     17 C17       -13.1303    3.3587   57.1703 C.3     1  ZINC000065993627   -0.1600
     18 C18       -10.9813    2.2282   56.6678 C.ar    1  ZINC000065993627   -0.1200
     19 C19       -10.2040    3.0199   55.8424 C.ar    1  ZINC000065993627   -0.0800
     20 C20        -9.4457    2.4421   54.8429 C.ar    1  ZINC000065993627   -0.1500
     21 C21        -9.4645    1.0648   54.6675 C.ar    1  ZINC000065993627    0.1800
     22 N22        -8.6969    0.4761   53.6561 N.am    1  ZINC000065993627   -0.5700
     23 C23        -7.3917    0.9602   53.1811 C.3     1  ZINC000065993627    0.0600
     24 C24        -7.0066   -0.0448   52.0785 C.3     1  ZINC000065993627    0.0400
     25 O25        -8.1234   -0.9800   52.0478 O.3     1  ZINC000065993627   -0.3200
     26 C26        -9.0288   -0.6237   52.9661 C.2     1  ZINC000065993627    0.6400
     27 O27       -10.0617   -1.2363   53.1514 O.2     1  ZINC000065993627   -0.5000
     28 C28       -10.2461    0.2725   55.4981 C.ar    1  ZINC000065993627   -0.1500
     29 C29       -10.9978    0.8559   56.4993 C.ar    1  ZINC000065993627   -0.0800
     30 H30        -8.5486    0.6211   60.7393 H       1  ZINC000065993627    0.0700
     31 H31        -8.5140   -0.8664   61.7163 H       1  ZINC000065993627    0.0700
     32 H32        -9.8964   -0.5376   60.6444 H       1  ZINC000065993627    0.0600
     33 H33        -8.2648    0.3210   63.8198 H       1  ZINC000065993627    0.1200
     34 H34        -7.5499    0.3624   66.2255 H       1  ZINC000065993627    0.0500
     35 H35        -8.6470    0.4401   67.6250 H       1  ZINC000065993627    0.0700
     36 H36        -9.0827   -0.5424   66.2062 H       1  ZINC000065993627    0.0700
     37 H37        -9.9136    3.5193   66.1095 H       1  ZINC000065993627    0.0800
     38 H38        -9.7133    2.6598   67.6552 H       1  ZINC000065993627    0.0500
     39 H39        -8.2820    3.1989   66.7448 H       1  ZINC000065993627    0.0500
     40 H40       -11.6483    2.4800   65.2948 H       1  ZINC000065993627    0.1300
     41 H41       -12.7362    2.2758   63.0968 H       1  ZINC000065993627    0.1500
     42 H42       -12.3373    0.3367   60.7941 H       1  ZINC000065993627    0.4000
     43 H43       -12.6864    1.1371   58.6292 H       1  ZINC000065993627    0.4000
     44 H44       -13.7279    3.8172   57.9583 H       1  ZINC000065993627    0.0700
     45 H45       -12.9289    4.0949   56.3922 H       1  ZINC000065993627    0.0700
     46 H46       -13.6765    2.5181   56.7425 H       1  ZINC000065993627    0.0600
     47 H47       -10.1901    4.0912   55.9791 H       1  ZINC000065993627    0.1300
     48 H48        -8.8391    3.0609   54.1984 H       1  ZINC000065993627    0.1600
     49 H49        -7.4829    1.9650   52.7685 H       1  ZINC000065993627    0.1000
     50 H50        -6.6597    0.9419   53.9885 H       1  ZINC000065993627    0.1000
     51 H51        -6.9056    0.4614   51.1184 H       1  ZINC000065993627    0.1100
     52 H52        -6.0825   -0.5614   52.3381 H       1  ZINC000065993627    0.1100
     53 H53       -10.2630   -0.7989   55.3639 H       1  ZINC000065993627    0.1300
     54 H54       -11.6056    0.2403   57.1457 H       1  ZINC000065993627    0.1300
@<TRIPOS>BOND
     1     1     2    1
     2     1    30    1
     3     1    31    1
     4     1    32    1
     5     2    10   ar
     6     2     3   ar
     7     3     4   ar
     8     3    33    1
     9     4     5    1
    10     4     8   ar
    11     5     6    1
    12     5     7    1
    13     6    34    1
    14     6    35    1
    15     6    36    1
    16     7    37    1
    17     7    38    1
    18     7    39    1
    19     8     9   ar
    20     8    40    1
    21     9    10   ar
    22     9    41    1
    23    10    11    1
    24    11    12   am
    25    11    42    1
    26    12    13    2
    27    12    14   am
    28    14    15    1
    29    14    43    1
    30    15    16    1
    31    15    17    1
    32    15    18    1
    33    17    44    1
    34    17    45    1
    35    17    46    1
    36    18    29   ar
    37    18    19   ar
    38    19    20   ar
    39    19    47    1
    40    20    21   ar
    41    20    48    1
    42    21    22    1
    43    21    28   ar
    44    22    26   am
    45    22    23    1
    46    23    24    1
    47    23    49    1
    48    23    50    1
    49    24    25    1
    50    24    51    1
    51    24    52    1
    52    25    26    1
    53    26    27    2
    54    28    29   ar
    55    28    53    1
    56    29    54    1
@<TRIPOS>SUBSTRUCTURE
     1 ZINC000065993627        1 TEMP              0 ****  ****    0 ROOT


##########                                Name:    ZINC000939075213
##########                DOCK_Rotatable_Bonds:                   7
##########                         Heavy_Atoms:                  24
##########                    Molecular_Weight:             327.426
##########                DOCK_Rotatable_Bonds:                   7
##########                       Formal_Charge:          -0.0200002
##########                     HBond_Acceptors:                   5
##########                        HBond_Donors:                   2
##########                         Heavy_Atoms:                  24
##########                          Grid_Score:          -24.349522
##########                     Grid_vdw_energy:          -23.972805
##########                      Grid_es_energy:           -0.376717
##########           Internal_energy_repulsive:           40.594662

@<TRIPOS>MOLECULE
ZINC000939075213
 49 51 1 0 0
SMALL
USER_CHARGES


@<TRIPOS>ATOM
      1 C1        -12.1603    1.7921   55.1176 C.3     1  ZINC000939075213   -0.1400
      2 C2        -10.6479    1.6999   54.9055 C.3     1  ZINC000939075213   -0.1100
      3 H3        -10.1153    2.3129   55.6327 H       1  ZINC000939075213    0.0900
      4 C4        -10.2650    2.0970   53.4580 C.3     1  ZINC000939075213    0.1100
      5 N5         -8.9850    1.4110   53.2045 N.am    1  ZINC000939075213   -0.6200
      6 C6         -8.0550    1.7902   52.3057 C.2     1  ZINC000939075213    0.5600
      7 O7         -8.2405    2.7774   51.6172 O.2     1  ZINC000939075213   -0.5400
      8 C8         -6.8630    1.0411   52.1618 C.2     1  ZINC000939075213   -0.2600
      9 C9         -5.6681    1.6019   52.4733 C.2     1  ZINC000939075213    0.0400
     10 C10        -5.6131    2.9375   52.9426 C.2     1  ZINC000939075213    0.0000
     11 C11        -4.4713    3.6362   53.2892 C.2     1  ZINC000939075213   -0.1500
     12 C12        -4.8773    4.9109   53.6948 C.2     1  ZINC000939075213   -0.2200
     13 C13        -6.2272    4.9705   53.5926 C.2     1  ZINC000939075213    0.0200
     14 N14        -6.6864    3.7792   53.1313 N.pl3   1  ZINC000939075213   -0.5000
     15 C15        -8.8903    0.2452   54.0954 C.3     1  ZINC000939075213    0.0900
     16 C16       -10.1672    0.2258   54.9626 C.3     1  ZINC000939075213    0.1400
     17 H17       -10.9154   -0.4401   54.5325 H       1  ZINC000939075213    0.1100
     18 N18        -9.8537   -0.1696   56.3380 N.am    1  ZINC000939075213   -0.7200
     19 C19       -10.6237   -1.0770   56.9705 C.2     1  ZINC000939075213    0.5300
     20 O20       -11.5771   -1.5652   56.4016 O.2     1  ZINC000939075213   -0.5300
     21 C21       -10.3001   -1.4849   58.3847 C.3     1  ZINC000939075213   -0.0600
     22 C22       -11.5631   -1.9659   59.1018 C.3     1  ZINC000939075213   -0.1300
     23 C23        -9.2437   -2.5653   58.3923 C.2     1  ZINC000939075213   -0.1700
     24 C24        -8.3294   -2.3222   59.2914 C.2     1  ZINC000939075213   -0.1400
     25 C25        -8.6234   -1.0392   60.0334 C.3     1  ZINC000939075213   -0.1100
     26 C26        -9.6609   -0.3048   59.1529 C.3     1  ZINC000939075213   -0.1100
     27 H27       -12.4100    1.4308   56.1153 H       1  ZINC000939075213    0.0600
     28 H28       -12.4787    2.8298   55.0168 H       1  ZINC000939075213    0.0700
     29 H29       -12.6697    1.1817   54.3721 H       1  ZINC000939075213    0.0600
     30 H30       -11.0251    1.7531   52.7566 H       1  ZINC000939075213    0.0700
     31 H31       -10.1382    3.1769   53.3819 H       1  ZINC000939075213    0.0800
     32 H32        -6.9048    0.0230   51.8042 H       1  ZINC000939075213    0.1300
     33 H33        -4.7584    1.0302   52.3636 H       1  ZINC000939075213    0.1500
     34 H34        -3.4571    3.2666   53.2537 H       1  ZINC000939075213    0.1400
     35 H35        -4.2297    5.7073   54.0304 H       1  ZINC000939075213    0.1400
     36 H36        -6.8380    5.8275   53.8352 H       1  ZINC000939075213    0.1600
     37 H37        -7.6161    3.5562   52.9674 H       1  ZINC000939075213    0.4100
     38 H38        -8.8291   -0.6687   53.5045 H       1  ZINC000939075213    0.0800
     39 H39        -8.0111    0.3364   54.7332 H       1  ZINC000939075213    0.0700
     40 H40        -9.0918    0.2217   56.7934 H       1  ZINC000939075213    0.4000
     41 H41       -11.9854   -2.8148   58.5639 H       1  ZINC000939075213    0.0600
     42 H42       -11.3110   -2.2688   60.1180 H       1  ZINC000939075213    0.0700
     43 H43       -12.2930   -1.1570   59.1342 H       1  ZINC000939075213    0.0600
     44 H44        -9.2453   -3.4258   57.7397 H       1  ZINC000939075213    0.1300
     45 H45        -7.4750   -2.9552   59.4805 H       1  ZINC000939075213    0.1300
     46 H46        -9.0443   -1.2562   61.0153 H       1  ZINC000939075213    0.0800
     47 H47        -7.7174   -0.4412   60.1316 H       1  ZINC000939075213    0.0800
     48 H48        -9.1723    0.3888   58.4685 H       1  ZINC000939075213    0.0900
     49 H49       -10.4007    0.2093   59.7664 H       1  ZINC000939075213    0.0800
@<TRIPOS>BOND
     1     1     2    1
     2     1    27    1
     3     1    28    1
     4     1    29    1
     5     2     3    1
     6     2    16    1
     7     2     4    1
     8     4     5    1
     9     4    30    1
    10     4    31    1
    11     5     6   am
    12     5    15    1
    13     6     7    2
    14     6     8    1
    15     8     9    2
    16     8    32    1
    17     9    10    1
    18     9    33    1
    19    10    14    1
    20    10    11    2
    21    11    12    1
    22    11    34    1
    23    12    13    2
    24    12    35    1
    25    13    14    1
    26    13    36    1
    27    14    37    1
    28    15    16    1
    29    15    38    1
    30    15    39    1
    31    16    17    1
    32    16    18    1
    33    18    19   am
    34    18    40    1
    35    19    20    2
    36    19    21    1
    37    21    26    1
    38    21    22    1
    39    21    23    1
    40    22    41    1
    41    22    42    1
    42    22    43    1
    43    23    24    2
    44    23    44    1
    45    24    25    1
    46    24    45    1
    47    25    26    1
    48    25    46    1
    49    25    47    1
    50    26    48    1
    51    26    49    1
@<TRIPOS>SUBSTRUCTURE
     1 ZINC000939075213        1 TEMP              0 ****  ****    0 ROOT


##########                                Name:    ZINC000534890536
##########                DOCK_Rotatable_Bonds:                   6
##########                         Heavy_Atoms:                  30
##########                    Molecular_Weight:             411.476
##########                DOCK_Rotatable_Bonds:                   6
##########                       Formal_Charge:          0.00999957
##########                     HBond_Acceptors:                   7
##########                        HBond_Donors:                   1
##########                         Heavy_Atoms:                  30
##########                          Grid_Score:          -24.238165
##########                     Grid_vdw_energy:          -24.730394
##########                      Grid_es_energy:            0.492230
##########           Internal_energy_repulsive:           27.854187

@<TRIPOS>MOLECULE
ZINC000534890536
 56 59 1 0 0
SMALL
USER_CHARGES


@<TRIPOS>ATOM
      1 C1         -2.4771    5.4215   54.3274 C.3     1  ZINC000534890536    0.0300
      2 O2         -2.5145    4.3659   53.3649 O.3     1  ZINC000534890536   -0.3200
      3 C3         -3.6417    3.6080   53.3240 C.ar    1  ZINC000534890536    0.1300
      4 C4         -3.7432    2.5619   52.4184 C.ar    1  ZINC000534890536   -0.2100
      5 C5         -4.8899    1.7927   52.3791 C.ar    1  ZINC000534890536   -0.0700
      6 C6         -5.9362    2.0647   53.2410 C.ar    1  ZINC000534890536   -0.1100
      7 C7         -7.1863    1.2243   53.1956 C.3     1  ZINC000534890536   -0.0600
      8 H8         -6.9582    0.2051   52.8838 H       1  ZINC000534890536    0.0900
      9 C9         -8.2533    1.8641   52.2684 C.3     1  ZINC000534890536   -0.1200
     10 C10        -9.5799    1.3293   52.8477 C.3     1  ZINC000534890536    0.1000
     11 N11        -9.3232    0.9445   54.2433 N.am    1  ZINC000534890536   -0.6400
     12 C12       -10.2262    0.4112   55.0899 C.2     1  ZINC000534890536    0.7300
     13 O13       -11.3655    0.2099   54.7158 O.2     1  ZINC000534890536   -0.5700
     14 N14        -9.8664    0.1008   56.3511 N.am    1  ZINC000534890536   -0.7300
     15 C15       -10.8484   -0.4773   57.2717 C.3     1  ZINC000534890536    0.1600
     16 H16       -11.8467   -0.1366   56.9972 H       1  ZINC000534890536    0.1200
     17 C17       -10.7903   -2.0043   57.1839 C.3     1  ZINC000534890536   -0.1300
     18 C18       -11.6153   -2.5879   58.3373 C.3     1  ZINC000534890536   -0.1300
     19 C19       -10.9104   -2.2656   59.6554 C.3     1  ZINC000534890536    0.1100
     20 N20       -10.5933   -0.8450   59.7302 N.am    1  ZINC000534890536   -0.5600
     21 C21       -10.3278   -0.2972   60.9916 C.ar    1  ZINC000534890536    0.1000
     22 C22       -11.2940    0.4601   61.6384 C.ar    1  ZINC000534890536   -0.0800
     23 C23       -11.0295    0.9989   62.8830 C.ar    1  ZINC000534890536   -0.1200
     24 C24        -9.8035    0.7853   63.4849 C.ar    1  ZINC000534890536   -0.0800
     25 C25        -8.8370    0.0312   62.8443 C.ar    1  ZINC000534890536   -0.1500
     26 C26        -9.0969   -0.5157   61.6013 C.ar    1  ZINC000534890536    0.1100
     27 F27        -8.1532   -1.2526   60.9755 F       1  ZINC000534890536   -0.1300
     28 C28       -10.5386   -0.0358   58.6733 C.2     1  ZINC000534890536    0.5000
     29 O29       -10.2235    1.1218   58.8522 O.2     1  ZINC000534890536   -0.5100
     30 C30        -7.9137    1.2368   54.5633 C.3     1  ZINC000534890536    0.1300
     31 C31        -5.8374    3.1065   54.1448 C.ar    1  ZINC000534890536   -0.0700
     32 C32        -4.6907    3.8755   54.1917 C.ar    1  ZINC000534890536   -0.1500
     33 H33        -3.2921    6.1189   54.1338 H       1  ZINC000534890536    0.0600
     34 H34        -2.5860    5.0044   55.3286 H       1  ZINC000534890536    0.0600
     35 H35        -1.5246    5.9464   54.2542 H       1  ZINC000534890536    0.1000
     36 H36        -2.9265    2.3493   51.7445 H       1  ZINC000534890536    0.1300
     37 H37        -4.9694    0.9781   51.6743 H       1  ZINC000534890536    0.1300
     38 H38        -8.2160    2.9517   52.3306 H       1  ZINC000534890536    0.0800
     39 H39        -8.1196    1.5307   51.2393 H       1  ZINC000534890536    0.0900
     40 H40       -10.3409    2.1088   52.8121 H       1  ZINC000534890536    0.0700
     41 H41        -9.9095    0.4603   52.2782 H       1  ZINC000534890536    0.0700
     42 H42        -8.9572    0.2602   56.6492 H       1  ZINC000534890536    0.4000
     43 H43       -11.2066   -2.3333   56.2317 H       1  ZINC000534890536    0.0900
     44 H44        -9.7558   -2.3377   57.2672 H       1  ZINC000534890536    0.0800
     45 H45       -12.6105   -2.1435   58.3365 H       1  ZINC000534890536    0.0800
     46 H46       -11.6948   -3.6687   58.2198 H       1  ZINC000534890536    0.1000
     47 H47       -11.5619   -2.5336   60.4873 H       1  ZINC000534890536    0.0800
     48 H48        -9.9893   -2.8444   59.7224 H       1  ZINC000534890536    0.0700
     49 H49       -12.2522    0.6285   61.1693 H       1  ZINC000534890536    0.1300
     50 H50       -11.7816    1.5883   63.3863 H       1  ZINC000534890536    0.1300
     51 H51        -9.5997    1.2085   64.4574 H       1  ZINC000534890536    0.1400
     52 H52        -7.8801   -0.1338   63.3172 H       1  ZINC000534890536    0.1400
     53 H53        -7.5058    0.4668   55.2181 H       1  ZINC000534890536    0.0800
     54 H54        -7.8262    2.2181   55.0298 H       1  ZINC000534890536    0.0700
     55 H55        -6.6559    3.3168   54.8172 H       1  ZINC000534890536    0.1300
     56 H56        -4.6140    4.6890   54.8977 H       1  ZINC000534890536    0.1300
@<TRIPOS>BOND
     1     1     2    1
     2     1    33    1
     3     1    34    1
     4     1    35    1
     5     2     3    1
     6     3    32   ar
     7     3     4   ar
     8     4     5   ar
     9     4    36    1
    10     5     6   ar
    11     5    37    1
    12     6     7    1
    13     6    31   ar
    14     7     8    1
    15     7    30    1
    16     7     9    1
    17     9    10    1
    18     9    38    1
    19     9    39    1
    20    10    11    1
    21    10    40    1
    22    10    41    1
    23    11    12   am
    24    11    30    1
    25    12    13    2
    26    12    14   am
    27    14    15    1
    28    14    42    1
    29    15    16    1
    30    15    28    1
    31    15    17    1
    32    17    18    1
    33    17    43    1
    34    17    44    1
    35    18    19    1
    36    18    45    1
    37    18    46    1
    38    19    20    1
    39    19    47    1
    40    19    48    1
    41    20    21    1
    42    20    28   am
    43    21    26   ar
    44    21    22   ar
    45    22    23   ar
    46    22    49    1
    47    23    24   ar
    48    23    50    1
    49    24    25   ar
    50    24    51    1
    51    25    26   ar
    52    25    52    1
    53    26    27    1
    54    28    29    2
    55    30    53    1
    56    30    54    1
    57    31    32   ar
    58    31    55    1
    59    32    56    1
@<TRIPOS>SUBSTRUCTURE
     1 ZINC000534890536        1 TEMP              0 ****  ****    0 ROOT


##########                                Name:    ZINC000643274279
##########                DOCK_Rotatable_Bonds:                   6
##########                         Heavy_Atoms:                  29
##########                    Molecular_Weight:             392.454
##########                DOCK_Rotatable_Bonds:                   6
##########                       Formal_Charge:         -0.00999939
##########                     HBond_Acceptors:                   6
##########                        HBond_Donors:                   2
##########                         Heavy_Atoms:                  29
##########                          Grid_Score:          -24.168495
##########                     Grid_vdw_energy:          -23.082790
##########                      Grid_es_energy:           -1.085705
##########           Internal_energy_repulsive:            7.935008

@<TRIPOS>MOLECULE
ZINC000643274279
 53 56 1 0 0
SMALL
USER_CHARGES


@<TRIPOS>ATOM
      1 O1         -5.6565    4.7380   57.9711 O.2     1  ZINC000643274279   -0.4900
      2 C2         -4.8515    3.8401   58.1099 C.2     1  ZINC000643274279    0.5100
      3 N3         -5.2028    2.5702   57.8266 N.am    1  ZINC000643274279   -0.6400
      4 C4         -6.4958    2.2863   57.3785 C.ar    1  ZINC000643274279    0.1300
      5 C5         -7.5476    2.2287   58.2861 C.ar    1  ZINC000643274279   -0.1000
      6 C6         -8.8296    1.9366   57.8532 C.ar    1  ZINC000643274279   -0.1000
      7 C7         -9.0650    1.7000   56.5168 C.ar    1  ZINC000643274279   -0.0600
      8 C8        -10.4559    1.3103   56.0478 C.3     1  ZINC000643274279   -0.0900
      9 C9        -11.0325    2.4355   55.1962 C.3     1  ZINC000643274279   -0.1200
     10 C10       -10.6336    2.2893   53.7354 C.3     1  ZINC000643274279   -0.1100
     11 C11        -9.1802    2.5821   53.4605 C.3     1  ZINC000643274279   -0.1600
     12 C12        -8.3016    1.5648   54.1624 C.2     1  ZINC000643274279    0.4100
     13 O13        -7.8451    0.6116   53.5682 O.2     1  ZINC000643274279   -0.4400
     14 C14        -8.0228    1.7784   55.5933 C.ar    1  ZINC000643274279   -0.1300
     15 C15        -6.7282    2.0684   56.0282 C.ar    1  ZINC000643274279   -0.1000
     16 C16        -3.4698    4.1436   58.5889 C.2     1  ZINC000643274279    0.5200
     17 O17        -3.3063    4.7186   59.6451 O.2     1  ZINC000643274279   -0.5000
     18 N18        -2.4045    3.7789   57.8482 N.am    1  ZINC000643274279   -0.5800
     19 C19        -2.4584    3.0781   56.5523 C.3     1  ZINC000643274279    0.0900
     20 C20        -1.1257    3.4398   55.8503 C.3     1  ZINC000643274279   -0.1400
     21 C21        -0.1372    3.4529   57.0461 C.3     1  ZINC000643274279   -0.1200
     22 C22        -0.9964    4.0197   58.1958 C.3     1  ZINC000643274279    0.1800
     23 H23        -0.8135    5.0889   58.3030 H       1  ZINC000643274279    0.0900
     24 C24        -0.6617    3.3111   59.4831 C.ar    1  ZINC000643274279   -0.1000
     25 C25        -0.1357    4.0222   60.5457 C.ar    1  ZINC000643274279   -0.0900
     26 C26         0.1719    3.3750   61.7268 C.ar    1  ZINC000643274279   -0.1400
     27 C27        -0.0479    2.0104   61.8462 C.ar    1  ZINC000643274279    0.1100
     28 O28         0.2535    1.3715   63.0072 O.3     1  ZINC000643274279   -0.5000
     29 C29        -0.5763    1.2993   60.7787 C.ar    1  ZINC000643274279   -0.1400
     30 C30        -0.8867    1.9519   59.6014 C.ar    1  ZINC000643274279   -0.0900
     31 H31        -4.5583    1.8533   57.9339 H       1  ZINC000643274279    0.4200
     32 H32        -7.3634    2.4123   59.3343 H       1  ZINC000643274279    0.1400
     33 H33        -9.6434    1.8940   58.5618 H       1  ZINC000643274279    0.1400
     34 H34       -10.3977    0.3979   55.4544 H       1  ZINC000643274279    0.0800
     35 H35       -11.0979    1.1426   56.9126 H       1  ZINC000643274279    0.0800
     36 H36       -12.1198    2.4183   55.2720 H       1  ZINC000643274279    0.0800
     37 H37       -10.6655    3.3907   55.5719 H       1  ZINC000643274279    0.0700
     38 H38       -10.8477    1.2687   53.4180 H       1  ZINC000643274279    0.0700
     39 H39       -11.2429    2.9691   53.1398 H       1  ZINC000643274279    0.0800
     40 H40        -8.9991    2.5363   52.3866 H       1  ZINC000643274279    0.0900
     41 H41        -8.9378    3.5809   53.8237 H       1  ZINC000643274279    0.0900
     42 H42        -5.9142    2.1188   55.3202 H       1  ZINC000643274279    0.1300
     43 H43        -2.5262    2.0011   56.7060 H       1  ZINC000643274279    0.0800
     44 H44        -3.3052    3.4324   55.9645 H       1  ZINC000643274279    0.1000
     45 H45        -0.8482    2.6775   55.1223 H       1  ZINC000643274279    0.0900
     46 H46        -1.1851    4.4221   55.3816 H       1  ZINC000643274279    0.0800
     47 H47         0.2035    2.4434   57.2758 H       1  ZINC000643274279    0.0800
     48 H48         0.7086    4.1090   56.8401 H       1  ZINC000643274279    0.0900
     49 H49         0.0353    5.0845   60.4523 H       1  ZINC000643274279    0.1200
     50 H50         0.5836    3.9307   62.5563 H       1  ZINC000643274279    0.1300
     51 H51        -0.4155    0.7330   63.2899 H       1  ZINC000643274279    0.3900
     52 H52        -0.7480    0.2368   60.8691 H       1  ZINC000643274279    0.1300
     53 H53        -1.2984    1.3989   58.7702 H       1  ZINC000643274279    0.1300
@<TRIPOS>BOND
     1     1     2    2
     2     2     3   am
     3     2    16    1
     4     3     4    1
     5     3    31    1
     6     4    15   ar
     7     4     5   ar
     8     5     6   ar
     9     5    32    1
    10     6     7   ar
    11     6    33    1
    12     7    14   ar
    13     7     8    1
    14     8     9    1
    15     8    34    1
    16     8    35    1
    17     9    10    1
    18     9    36    1
    19     9    37    1
    20    10    11    1
    21    10    38    1
    22    10    39    1
    23    11    12    1
    24    11    40    1
    25    11    41    1
    26    12    13    2
    27    12    14    1
    28    14    15   ar
    29    15    42    1
    30    16    17    2
    31    16    18   am
    32    18    22    1
    33    18    19    1
    34    19    20    1
    35    19    43    1
    36    19    44    1
    37    20    21    1
    38    20    45    1
    39    20    46    1
    40    21    22    1
    41    21    47    1
    42    21    48    1
    43    22    23    1
    44    22    24    1
    45    24    30   ar
    46    24    25   ar
    47    25    26   ar
    48    25    49    1
    49    26    27   ar
    50    26    50    1
    51    27    28    1
    52    27    29   ar
    53    28    51    1
    54    29    30   ar
    55    29    52    1
    56    30    53    1
@<TRIPOS>SUBSTRUCTURE
     1 ZINC000643274279        1 TEMP              0 ****  ****    0 ROOT


##########                                Name:    ZINC000647468483
##########                DOCK_Rotatable_Bonds:                   5
##########                         Heavy_Atoms:                  24
##########                    Molecular_Weight:             341.373
##########                DOCK_Rotatable_Bonds:                   5
##########                       Formal_Charge:           0.0300004
##########                     HBond_Acceptors:                   6
##########                        HBond_Donors:                   2
##########                         Heavy_Atoms:                  24
##########                          Grid_Score:          -24.145746
##########                     Grid_vdw_energy:          -16.597725
##########                      Grid_es_energy:           -7.548021
##########           Internal_energy_repulsive:           20.592106

@<TRIPOS>MOLECULE
ZINC000647468483
 46 48 1 0 0
SMALL
USER_CHARGES


@<TRIPOS>ATOM
      1 O1        -14.9197    0.5265   61.9917 O.co2   1  ZINC000647468483   -0.6800
      2 C2        -14.1131    1.4082   62.2335 C.2     1  ZINC000647468483    0.5000
      3 O3        -13.6968    1.5588   63.3696 O.co2   1  ZINC000647468483   -0.6900
      4 C4        -13.6259    2.3080   61.1270 C.3     1  ZINC000647468483   -0.1500
      5 H5        -14.2559    3.1938   61.0459 H       1  ZINC000647468483    0.0800
      6 C6        -13.5761    1.5444   59.7804 C.3     1  ZINC000647468483   -0.1100
      7 C7        -12.5401    2.3220   58.9427 C.3     1  ZINC000647468483   -0.1400
      8 C8        -11.6299    3.0577   59.9418 C.3     1  ZINC000647468483    0.0100
      9 H9        -11.6933    4.1341   59.7820 H       1  ZINC000647468483    0.1400
     10 N10       -10.2409    2.6068   59.7834 N.4     1  ZINC000647468483   -0.5000
     11 H11        -9.6587    3.0636   60.4695 H       1  ZINC000647468483    0.4200
     12 H12       -10.1946    1.6075   59.9149 H       1  ZINC000647468483    0.4300
     13 C13        -9.7667    2.9459   58.4350 C.3     1  ZINC000647468483    0.0200
     14 H14       -10.6151    3.1422   57.7796 H       1  ZINC000647468483    0.1500
     15 C15        -8.8492    4.1798   58.4937 C.3     1  ZINC000647468483   -0.1400
     16 C16        -7.4729    3.7314   57.9603 C.3     1  ZINC000647468483   -0.1300
     17 C17        -7.4570    2.1997   58.1903 C.3     1  ZINC000647468483   -0.1300
     18 C18        -8.9169    1.7901   57.8677 C.3     1  ZINC000647468483   -0.0600
     19 H19        -9.0597    1.7039   56.7905 H       1  ZINC000647468483    0.1300
     20 C20        -9.2634    0.4918   58.5500 C.ar    1  ZINC000647468483   -0.1200
     21 C21        -8.8977    0.2839   59.8664 C.ar    1  ZINC000647468483   -0.0700
     22 C22        -9.2156   -0.9072   60.4924 C.ar    1  ZINC000647468483   -0.1000
     23 C23        -9.8995   -1.8898   59.8016 C.ar    1  ZINC000647468483   -0.0600
     24 C24       -10.2660   -1.6814   58.4849 C.ar    1  ZINC000647468483   -0.1600
     25 C25       -11.0114   -2.7530   57.7317 C.3     1  ZINC000647468483    0.5000
     26 F26       -10.8523   -2.5526   56.3563 F       1  ZINC000647468483   -0.1700
     27 F27       -10.5032   -4.0085   58.0819 F       1  ZINC000647468483   -0.1700
     28 F28       -12.3705   -2.6925   58.0577 F       1  ZINC000647468483   -0.1700
     29 C29        -9.9520   -0.4890   57.8605 C.ar    1  ZINC000647468483   -0.1100
     30 C30       -12.1463    2.7057   61.3544 C.3     1  ZINC000647468483   -0.1200
     31 H31       -13.2471    0.5171   59.9363 H       1  ZINC000647468483    0.0800
     32 H32       -14.5517    1.5641   59.2945 H       1  ZINC000647468483    0.0800
     33 H33       -11.9512    1.6297   58.3409 H       1  ZINC000647468483    0.0700
     34 H34       -13.0451    3.0413   58.2980 H       1  ZINC000647468483    0.1000
     35 H35        -9.2520    4.9747   57.8660 H       1  ZINC000647468483    0.1000
     36 H36        -8.7559    4.5271   59.5227 H       1  ZINC000647468483    0.0900
     37 H37        -7.3829    3.9587   56.8981 H       1  ZINC000647468483    0.0800
     38 H38        -6.6714    4.2099   58.5231 H       1  ZINC000647468483    0.0900
     39 H39        -6.7599    1.7139   57.5077 H       1  ZINC000647468483    0.0900
     40 H40        -7.2104    1.9672   59.2263 H       1  ZINC000647468483    0.0800
     41 H41        -8.3633    1.0518   60.4062 H       1  ZINC000647468483    0.1400
     42 H42        -8.9292   -1.0699   61.5209 H       1  ZINC000647468483    0.1500
     43 H43       -10.1471   -2.8205   60.2903 H       1  ZINC000647468483    0.1500
     44 H44       -10.2384   -0.3262   56.8320 H       1  ZINC000647468483    0.1400
     45 H45       -12.0758    3.5713   62.0130 H       1  ZINC000647468483    0.0900
     46 H46       -11.5877    1.8652   61.7663 H       1  ZINC000647468483    0.1000
@<TRIPOS>BOND
     1     1     2   ar
     2     2     3   ar
     3     2     4    1
     4     4     5    1
     5     4    30    1
     6     4     6    1
     7     6     7    1
     8     6    31    1
     9     6    32    1
    10     7     8    1
    11     7    33    1
    12     7    34    1
    13     8     9    1
    14     8    10    1
    15     8    30    1
    16    10    11    1
    17    10    12    1
    18    10    13    1
    19    13    14    1
    20    13    18    1
    21    13    15    1
    22    15    16    1
    23    15    35    1
    24    15    36    1
    25    16    17    1
    26    16    37    1
    27    16    38    1
    28    17    18    1
    29    17    39    1
    30    17    40    1
    31    18    19    1
    32    18    20    1
    33    20    29   ar
    34    20    21   ar
    35    21    22   ar
    36    21    41    1
    37    22    23   ar
    38    22    42    1
    39    23    24   ar
    40    23    43    1
    41    24    25    1
    42    24    29   ar
    43    25    26    1
    44    25    27    1
    45    25    28    1
    46    29    44    1
    47    30    45    1
    48    30    46    1
@<TRIPOS>SUBSTRUCTURE
     1 ZINC000647468483        1 TEMP              0 ****  ****    0 ROOT


##########                                Name:    ZINC001312809190
##########                DOCK_Rotatable_Bonds:                   6
##########                         Heavy_Atoms:                  29
##########                    Molecular_Weight:             395.501
##########                DOCK_Rotatable_Bonds:                   6
##########                       Formal_Charge:           0.0199995
##########                     HBond_Acceptors:                   6
##########                        HBond_Donors:                   1
##########                         Heavy_Atoms:                  29
##########                          Grid_Score:          -24.087341
##########                     Grid_vdw_energy:          -24.027966
##########                      Grid_es_energy:           -0.059375
##########           Internal_energy_repulsive:           39.724762

@<TRIPOS>MOLECULE
ZINC001312809190
 58 61 1 0 0
SMALL
USER_CHARGES


@<TRIPOS>ATOM
      1 C1        -14.7564   -3.0505   59.3396 C.3     1  ZINC001312809190    0.0300
      2 O2        -13.4092   -3.1173   59.8116 O.3     1  ZINC001312809190   -0.3200
      3 C3        -12.7448   -1.9399   59.9496 C.ar    1  ZINC001312809190    0.1300
      4 C4        -11.4344   -1.9307   60.4041 C.ar    1  ZINC001312809190   -0.2100
      5 C5        -10.7609   -0.7324   60.5430 C.ar    1  ZINC001312809190   -0.0800
      6 C6        -11.3921    0.4570   60.2299 C.ar    1  ZINC001312809190   -0.1300
      7 C7        -12.6987    0.4505   59.7770 C.ar    1  ZINC001312809190   -0.0500
      8 C8        -13.3840    1.7490   59.4369 C.3     1  ZINC001312809190    0.1200
      9 H9        -12.9799    2.5470   60.0597 H       1  ZINC001312809190    0.0500
     10 C10       -14.8867    1.6145   59.6916 C.3     1  ZINC001312809190   -0.1400
     11 N11       -13.1539    2.0682   58.0216 N.3     1  ZINC001312809190   -0.5300
     12 C12       -13.7755    1.0643   57.1477 C.3     1  ZINC001312809190    0.0300
     13 C13       -13.6706    1.5256   55.6901 C.3     1  ZINC001312809190    0.1400
     14 N14       -12.2605    1.8205   55.3937 N.am    1  ZINC001312809190   -0.6300
     15 C15       -11.6543    1.2873   54.3145 C.2     1  ZINC001312809190    0.7100
     16 O16       -12.2740    0.5518   53.5706 O.2     1  ZINC001312809190   -0.5800
     17 N17       -10.3613    1.5696   54.0598 N.am    1  ZINC001312809190   -0.7300
     18 C18        -9.7024    0.9901   52.8867 C.3     1  ZINC001312809190    0.1800
     19 H19       -10.4139    0.8481   52.0732 H       1  ZINC001312809190    0.1200
     20 C20        -8.5344    1.8487   52.4416 C.ar    1  ZINC001312809190   -0.1900
     21 C21        -8.4046    3.2063   52.2517 C.ar    1  ZINC001312809190   -0.0500
     22 C22        -7.1935    3.7340   51.8390 C.ar    1  ZINC001312809190   -0.1500
     23 C23        -6.1180    2.8939   51.6189 C.ar    1  ZINC001312809190   -0.0800
     24 C24        -6.2470    1.5329   51.8051 C.ar    1  ZINC001312809190   -0.1400
     25 C25        -7.4629    0.9936   52.2170 C.ar    1  ZINC001312809190    0.1100
     26 O26        -7.8118   -0.3031   52.4412 O.3     1  ZINC001312809190   -0.2900
     27 C27        -9.0023   -0.3416   53.2474 C.3     1  ZINC001312809190    0.0800
     28 H28        -8.7500   -0.3700   54.3074 H       1  ZINC001312809190    0.0900
     29 C29        -9.8755   -1.5391   52.8679 C.3     1  ZINC001312809190   -0.1500
     30 C30       -11.5296    2.7131   56.3061 C.3     1  ZINC001312809190    0.1200
     31 C31       -11.7188    2.2051   57.7394 C.3     1  ZINC001312809190    0.0400
     32 C32       -13.3743   -0.7453   59.6305 C.ar    1  ZINC001312809190   -0.1500
     33 H33       -15.1693   -4.0572   59.2755 H       1  ZINC001312809190    0.1000
     34 H34       -15.3544   -2.4558   60.0302 H       1  ZINC001312809190    0.0600
     35 H35       -14.7731   -2.5875   58.3530 H       1  ZINC001312809190    0.0600
     36 H36       -10.9410   -2.8596   60.6497 H       1  ZINC001312809190    0.1300
     37 H37        -9.7405   -0.7247   60.8969 H       1  ZINC001312809190    0.1300
     38 H38       -10.8642    1.3927   60.3394 H       1  ZINC001312809190    0.1300
     39 H39       -15.2908    0.8164   59.0687 H       1  ZINC001312809190    0.0700
     40 H40       -15.0575    1.3776   60.7417 H       1  ZINC001312809190    0.0600
     41 H41       -15.3823    2.5537   59.4456 H       1  ZINC001312809190    0.0600
     42 H42       -13.2606    0.1108   57.2654 H       1  ZINC001312809190    0.0400
     43 H43       -14.8250    0.9471   57.4175 H       1  ZINC001312809190    0.1000
     44 H44       -14.0261    0.7349   55.0294 H       1  ZINC001312809190    0.1000
     45 H45       -14.2707    2.4241   55.5463 H       1  ZINC001312809190    0.0700
     46 H46        -9.8670    2.1565   54.6532 H       1  ZINC001312809190    0.4000
     47 H47        -9.2475    3.8590   52.4244 H       1  ZINC001312809190    0.1200
     48 H48        -7.0892    4.7984   51.6891 H       1  ZINC001312809190    0.1300
     49 H49        -5.1719    3.3049   51.2992 H       1  ZINC001312809190    0.1300
     50 H50        -5.4019    0.8835   51.6306 H       1  ZINC001312809190    0.1300
     51 H51        -9.3244   -2.4622   53.0478 H       1  ZINC001312809190    0.0800
     52 H52       -10.7825   -1.5336   53.4724 H       1  ZINC001312809190    0.0800
     53 H53       -10.1417   -1.4749   51.8128 H       1  ZINC001312809190    0.0700
     54 H54       -10.4695    2.7074   56.0525 H       1  ZINC001312809190    0.0800
     55 H55       -11.9239    3.7257   56.2215 H       1  ZINC001312809190    0.0800
     56 H56       -11.2767    2.9152   58.4383 H       1  ZINC001312809190    0.0900
     57 H57       -11.2326    1.2357   57.8488 H       1  ZINC001312809190    0.0400
     58 H58       -14.3946   -0.7497   59.2764 H       1  ZINC001312809190    0.1300
@<TRIPOS>BOND
     1     1     2    1
     2     1    33    1
     3     1    34    1
     4     1    35    1
     5     2     3    1
     6     3    32   ar
     7     3     4   ar
     8     4     5   ar
     9     4    36    1
    10     5     6   ar
    11     5    37    1
    12     6     7   ar
    13     6    38    1
    14     7     8    1
    15     7    32   ar
    16     8     9    1
    17     8    10    1
    18     8    11    1
    19    10    39    1
    20    10    40    1
    21    10    41    1
    22    11    31    1
    23    11    12    1
    24    12    13    1
    25    12    42    1
    26    12    43    1
    27    13    14    1
    28    13    44    1
    29    13    45    1
    30    14    15   am
    31    14    30    1
    32    15    16    2
    33    15    17   am
    34    17    18    1
    35    17    46    1
    36    18    19    1
    37    18    27    1
    38    18    20    1
    39    20    25   ar
    40    20    21   ar
    41    21    22   ar
    42    21    47    1
    43    22    23   ar
    44    22    48    1
    45    23    24   ar
    46    23    49    1
    47    24    25   ar
    48    24    50    1
    49    25    26    1
    50    26    27    1
    51    27    28    1
    52    27    29    1
    53    29    51    1
    54    29    52    1
    55    29    53    1
    56    30    31    1
    57    30    54    1
    58    30    55    1
    59    31    56    1
    60    31    57    1
    61    32    58    1
@<TRIPOS>SUBSTRUCTURE
     1 ZINC001312809190        1 TEMP              0 ****  ****    0 ROOT


##########                                Name:    ZINC000912668252
##########                DOCK_Rotatable_Bonds:                  10
##########                         Heavy_Atoms:                  30
##########                    Molecular_Weight:             411.433
##########                DOCK_Rotatable_Bonds:                  10
##########                       Formal_Charge:           0.0199993
##########                     HBond_Acceptors:                   8
##########                        HBond_Donors:                   2
##########                         Heavy_Atoms:                  30
##########                          Grid_Score:          -24.037304
##########                     Grid_vdw_energy:          -22.269377
##########                      Grid_es_energy:           -1.767926
##########           Internal_energy_repulsive:           13.025182

@<TRIPOS>MOLECULE
ZINC000912668252
 52 54 1 0 0
SMALL
USER_CHARGES


@<TRIPOS>ATOM
      1 C1        -12.8694    4.4425   63.8479 C.3     1  ZINC000912668252   -0.1700
      2 C2        -13.3123    3.9954   62.4534 C.3     1  ZINC000912668252    0.1100
      3 N3        -12.2397    3.2196   61.8258 N.am    1  ZINC000912668252   -0.6100
      4 C4        -11.2224    3.8964   61.0178 C.3     1  ZINC000912668252    0.1000
      5 C5        -10.0519    4.3092   61.9126 C.3     1  ZINC000912668252   -0.1800
      6 C6        -12.1889    1.8830   61.9919 C.2     1  ZINC000912668252    0.5600
      7 O7        -13.0330    1.3214   62.6624 O.2     1  ZINC000912668252   -0.5300
      8 C8        -11.1064    1.0999   61.3585 C.ar    1  ZINC000912668252   -0.1100
      9 C9        -10.1220    0.5012   62.1464 C.ar    1  ZINC000912668252   -0.1100
     10 C10        -9.1129   -0.2296   61.5527 C.ar    1  ZINC000912668252   -0.1000
     11 C11        -9.0727   -0.3716   60.1784 C.ar    1  ZINC000912668252   -0.1200
     12 C12       -10.0483    0.2208   59.3850 C.ar    1  ZINC000912668252    0.1400
     13 N13       -10.0033    0.0737   57.9939 N.am    1  ZINC000912668252   -0.6700
     14 C14       -10.9385   -0.6643   57.3637 C.2     1  ZINC000912668252    0.5200
     15 O15       -11.8191   -1.2010   58.0021 O.2     1  ZINC000912668252   -0.4900
     16 C16       -10.8900   -0.8227   55.8658 C.3     1  ZINC000912668252    0.0500
     17 O17       -11.1899    0.4502   55.2346 O.3     1  ZINC000912668252   -0.3300
     18 C18       -10.9053    0.5644   53.9216 C.2     1  ZINC000912668252    0.5400
     19 O19       -11.7713    0.3635   53.0922 O.2     1  ZINC000912668252   -0.4800
     20 C20        -9.5491    0.9315   53.4931 C.2     1  ZINC000912668252    0.0400
     21 C21        -9.0334    2.1895   53.5009 C.2     1  ZINC000912668252   -0.0900
     22 C22        -7.7058    2.1143   53.0157 C.ar    1  ZINC000912668252   -0.1000
     23 C23        -6.7040    3.0705   52.8035 C.ar    1  ZINC000912668252   -0.0900
     24 C24        -5.4894    2.6839   52.3109 C.ar    1  ZINC000912668252    0.0700
     25 F25        -4.5248    3.6076   52.1070 F       1  ZINC000912668252   -0.1400
     26 C26        -5.2377    1.3478   52.0179 C.ar    1  ZINC000912668252   -0.1100
     27 C27        -6.2074    0.3909   52.2180 C.ar    1  ZINC000912668252   -0.1000
     28 C28        -7.4524    0.7606   52.7189 C.ar    1  ZINC000912668252    0.1100
     29 N29        -8.5918    0.0527   53.0236 N.pl3   1  ZINC000912668252   -0.5600
     30 C30       -11.0687    0.9522   59.9719 C.ar    1  ZINC000912668252   -0.0700
     31 H31       -13.6675    5.0198   64.3150 H       1  ZINC000912668252    0.0700
     32 H32       -12.6501    3.5662   64.4579 H       1  ZINC000912668252    0.0600
     33 H33       -11.9752    5.0603   63.7646 H       1  ZINC000912668252    0.0600
     34 H34       -14.2065    3.3776   62.5369 H       1  ZINC000912668252    0.0800
     35 H35       -13.5317    4.8716   61.8435 H       1  ZINC000912668252    0.0900
     36 H36       -10.8653    3.2196   60.2417 H       1  ZINC000912668252    0.0900
     37 H37       -11.6563    4.7830   60.5553 H       1  ZINC000912668252    0.0800
     38 H38       -10.2956    5.2411   62.4227 H       1  ZINC000912668252    0.0600
     39 H39        -9.8660    3.5289   62.6506 H       1  ZINC000912668252    0.0700
     40 H40        -9.1603    4.4517   61.3020 H       1  ZINC000912668252    0.0700
     41 H41       -10.1498    0.6101   63.2205 H       1  ZINC000912668252    0.1400
     42 H42        -8.3519   -0.6918   62.1639 H       1  ZINC000912668252    0.1400
     43 H43        -8.2804   -0.9443   59.7194 H       1  ZINC000912668252    0.1300
     44 H44        -9.2990    0.5029   57.4834 H       1  ZINC000912668252    0.4200
     45 H45        -9.8944   -1.1507   55.5672 H       1  ZINC000912668252    0.1100
     46 H46       -11.6255   -1.5646   55.5549 H       1  ZINC000912668252    0.1100
     47 H47        -9.5452    3.0855   53.8195 H       1  ZINC000912668252    0.1700
     48 H48        -6.8911    4.1100   53.0284 H       1  ZINC000912668252    0.1400
     49 H49        -4.2726    1.0581   51.6294 H       1  ZINC000912668252    0.1400
     50 H50        -6.0027   -0.6440   51.9868 H       1  ZINC000912668252    0.1400
     51 H51        -8.7051   -0.9055   52.9236 H       1  ZINC000912668252    0.4300
     52 H52       -11.8277    1.4132   59.3571 H       1  ZINC000912668252    0.1400
@<TRIPOS>BOND
     1     1     2    1
     2     1    31    1
     3     1    32    1
     4     1    33    1
     5     2     3    1
     6     2    34    1
     7     2    35    1
     8     3     4    1
     9     3     6   am
    10     4     5    1
    11     4    36    1
    12     4    37    1
    13     5    38    1
    14     5    39    1
    15     5    40    1
    16     6     7    2
    17     6     8    1
    18     8    30   ar
    19     8     9   ar
    20     9    10   ar
    21     9    41    1
    22    10    11   ar
    23    10    42    1
    24    11    12   ar
    25    11    43    1
    26    12    13    1
    27    12    30   ar
    28    13    14   am
    29    13    44    1
    30    14    15    2
    31    14    16    1
    32    16    17    1
    33    16    45    1
    34    16    46    1
    35    17    18    1
    36    18    19    2
    37    18    20    1
    38    20    29    1
    39    20    21    2
    40    21    22    1
    41    21    47    1
    42    22    28   ar
    43    22    23   ar
    44    23    24   ar
    45    23    48    1
    46    24    25    1
    47    24    26   ar
    48    26    27   ar
    49    26    49    1
    50    27    28   ar
    51    27    50    1
    52    28    29    1
    53    29    51    1
    54    30    52    1
@<TRIPOS>SUBSTRUCTURE
     1 ZINC000912668252        1 TEMP              0 ****  ****    0 ROOT


##########                                Name:    ZINC000668548901
##########                DOCK_Rotatable_Bonds:                   9
##########                         Heavy_Atoms:                  26
##########                    Molecular_Weight:             374.464
##########                DOCK_Rotatable_Bonds:                   9
##########                       Formal_Charge:         3.53903e-07
##########                     HBond_Acceptors:                   8
##########                        HBond_Donors:                   3
##########                         Heavy_Atoms:                  26
##########                          Grid_Score:          -24.035997
##########                     Grid_vdw_energy:          -22.116884
##########                      Grid_es_energy:           -1.919112
##########           Internal_energy_repulsive:           11.927287

@<TRIPOS>MOLECULE
ZINC000668548901
 48 50 1 0 0
SMALL
USER_CHARGES


@<TRIPOS>ATOM
      1 O1         -7.4604    1.1935   58.7636 O.2     1  ZINC000668548901   -0.5700
      2 C2         -7.5446    2.4038   58.8428 C.2     1  ZINC000668548901    0.7100
      3 N3         -8.4628    2.9637   59.6552 N.am    1  ZINC000668548901   -0.6800
      4 C4         -9.3206    2.1541   60.4013 C.ar    1  ZINC000668548901    0.2200
      5 C5         -9.0116    1.8068   61.7175 C.ar    1  ZINC000668548901   -0.1700
      6 C6         -9.8821    1.0052   62.4245 C.ar    1  ZINC000668548901    0.1200
      7 N7        -10.9980    0.5647   61.8739 N.ar    1  ZINC000668548901   -0.4300
      8 C8        -11.3298    0.8704   60.6273 C.ar    1  ZINC000668548901    0.1100
      9 S9        -12.8335    0.2521   59.9484 S.3     1  ZINC000668548901    0.0900
     10 C10       -12.3112   -1.1833   59.0698 C.ar    1  ZINC000668548901    0.0900
     11 C11       -11.2304   -1.9231   59.5385 C.ar    1  ZINC000668548901   -0.1500
     12 C12       -10.8313   -3.0480   58.8392 C.ar    1  ZINC000668548901   -0.0700
     13 C13       -11.5292   -3.3964   57.6904 C.ar    1  ZINC000668548901   -0.1700
     14 C14       -12.5930   -2.6161   57.2823 C.ar    1  ZINC000668548901    0.1000
     15 N15       -12.9547   -1.5513   57.9720 N.ar    1  ZINC000668548901   -0.4200
     16 C16       -10.5072    1.6781   59.8535 C.ar    1  ZINC000668548901   -0.1800
     17 N17        -6.7162    3.1855   58.1223 N.am    1  ZINC000668548901   -0.7200
     18 C18        -5.7182    2.5770   57.2393 C.3     1  ZINC000668548901    0.1700
     19 H19        -5.6196    1.5179   57.4779 H       1  ZINC000668548901    0.1000
     20 C20        -4.3699    3.2723   57.4377 C.3     1  ZINC000668548901    0.0600
     21 O21        -3.3575    2.2910   57.6702 O.3     1  ZINC000668548901   -0.5700
     22 C22        -6.1629    2.7325   55.7835 C.3     1  ZINC000668548901   -0.1300
     23 H23        -5.3096    2.5766   55.1235 H       1  ZINC000668548901    0.1000
     24 C24        -6.7265    4.1404   55.5680 C.3     1  ZINC000668548901   -0.1200
     25 C25        -7.2393    4.2585   54.1295 C.3     1  ZINC000668548901   -0.1600
     26 C26        -8.2852    3.1691   53.8778 C.3     1  ZINC000668548901    0.0600
     27 O27        -7.7048    1.8871   54.1259 O.3     1  ZINC000668548901   -0.3800
     28 C28        -7.2493    1.7011   55.4676 C.3     1  ZINC000668548901    0.0700
     29 H29        -8.5273    3.9292   59.7215 H       1  ZINC000668548901    0.4100
     30 H30        -8.1006    2.1617   62.1765 H       1  ZINC000668548901    0.1500
     31 H31        -9.6477    0.7337   63.4432 H       1  ZINC000668548901    0.1600
     32 H32       -10.7097   -1.6232   60.4359 H       1  ZINC000668548901    0.1400
     33 H33        -9.9955   -3.6416   59.1788 H       1  ZINC000668548901    0.1400
     34 H34       -11.2427   -4.2685   57.1215 H       1  ZINC000668548901    0.1400
     35 H35       -13.1383   -2.8833   56.3892 H       1  ZINC000668548901    0.1600
     36 H36       -10.7801    1.9256   58.8383 H       1  ZINC000668548901    0.1400
     37 H37        -6.7808    4.1511   58.1885 H       1  ZINC000668548901    0.4000
     38 H38        -4.1219    3.8457   56.5445 H       1  ZINC000668548901    0.0500
     39 H39        -4.4297    3.9429   58.2950 H       1  ZINC000668548901    0.0600
     40 H40        -3.5133    1.7425   58.4512 H       1  ZINC000668548901    0.3800
     41 H41        -7.5476    4.3149   56.2633 H       1  ZINC000668548901    0.0700
     42 H42        -5.9412    4.8772   55.7369 H       1  ZINC000668548901    0.0700
     43 H43        -7.6924    5.2391   53.9836 H       1  ZINC000668548901    0.0800
     44 H44        -6.4085    4.1332   53.4352 H       1  ZINC000668548901    0.0700
     45 H45        -9.1341    3.3192   54.5449 H       1  ZINC000668548901    0.0500
     46 H46        -8.6225    3.2214   52.8426 H       1  ZINC000668548901    0.1000
     47 H47        -6.8414    0.6962   55.5769 H       1  ZINC000668548901    0.1000
     48 H48        -8.0839    1.8317   56.1562 H       1  ZINC000668548901    0.0500
@<TRIPOS>BOND
     1     1     2    2
     2     2     3   am
     3     2    17   am
     4     3     4    1
     5     3    29    1
     6     4    16   ar
     7     4     5   ar
     8     5     6   ar
     9     5    30    1
    10     6     7   ar
    11     6    31    1
    12     7     8   ar
    13     8     9    1
    14     8    16   ar
    15     9    10    1
    16    10    15   ar
    17    10    11   ar
    18    11    12   ar
    19    11    32    1
    20    12    13   ar
    21    12    33    1
    22    13    14   ar
    23    13    34    1
    24    14    15   ar
    25    14    35    1
    26    16    36    1
    27    17    18    1
    28    17    37    1
    29    18    19    1
    30    18    20    1
    31    18    22    1
    32    20    21    1
    33    20    38    1
    34    20    39    1
    35    21    40    1
    36    22    23    1
    37    22    28    1
    38    22    24    1
    39    24    25    1
    40    24    41    1
    41    24    42    1
    42    25    26    1
    43    25    43    1
    44    25    44    1
    45    26    27    1
    46    26    45    1
    47    26    46    1
    48    27    28    1
    49    28    47    1
    50    28    48    1
@<TRIPOS>SUBSTRUCTURE
     1 ZINC000668548901        1 TEMP              0 ****  ****    0 ROOT


##########                                Name:      oleObject5.pdb
##########                DOCK_Rotatable_Bonds:                   5
##########                         Heavy_Atoms:                  24
##########                    Molecular_Weight:             323.438
##########                DOCK_Rotatable_Bonds:                   5
##########                       Formal_Charge:         0.000200074
##########                     HBond_Acceptors:                   4
##########                        HBond_Donors:                   2
##########                         Heavy_Atoms:                  24
##########                          Grid_Score:          -23.995531
##########                     Grid_vdw_energy:          -23.839432
##########                      Grid_es_energy:           -0.156100
##########           Internal_energy_repulsive:           10.962407

@<TRIPOS>MOLECULE
oleObject5.pdb
 49 51 1 0 0
SMALL
NO_CHARGES


@<TRIPOS>ATOM
      1 C         -10.0355   -1.7403   55.0983 C.3     1  UNL        -0.0394
      2 C         -11.2399   -0.8102   55.2069 C.ar    1  UNL        -0.0456
      3 C         -11.6995   -0.1872   54.0298 C.ar    1  UNL        -0.0590
      4 C         -12.7877    0.6961   54.0604 C.ar    1  UNL        -0.0620
      5 C         -13.4263    0.9711   55.2757 C.ar    1  UNL        -0.0619
      6 C         -12.9767    0.3593   56.4545 C.ar    1  UNL        -0.0565
      7 C         -11.8898   -0.5406   56.4398 C.ar    1  UNL        -0.0188
      8 C         -11.4310   -1.1513   57.7709 C.3     1  UNL         0.0906
      9 N         -10.5863   -0.1810   58.4894 N.am    1  UNL        -0.3025
     10 C          -9.8939   -0.4942   59.6453 C.2     1  UNL         0.2156
     11 O          -9.8042   -1.6386   60.0556 O.2     1  UNL        -0.2774
     12 C          -9.0767    0.6778   60.2212 C.3     1  UNL         0.0382
     13 C          -8.7835    0.4790   61.7325 C.3     1  UNL        -0.0292
     14 C         -10.0394    0.7268   62.5963 C.3     1  UNL        -0.0041
     15 N         -10.5850    2.0726   62.3494 N.4     1  UNL        -0.3167
     16 C         -10.9489    2.3069   60.9407 C.3     1  UNL        -0.0041
     17 C          -9.7505    2.0583   59.9903 C.3     1  UNL        -0.0292
     18 C         -12.6193   -1.6483   58.6121 C.ar    1  UNL         0.0681
     19 N         -13.0483   -0.8259   59.6002 N.ar    1  UNL        -0.2587
     20 C         -14.0906   -1.1998   60.3658 C.ar    1  UNL         0.0272
     21 C         -14.7650   -2.4159   60.1837 C.ar    1  UNL        -0.0435
     22 C         -14.3360   -3.2748   59.1619 C.ar    1  UNL        -0.0559
     23 C         -13.2464   -2.8936   58.3561 C.ar    1  UNL        -0.0272
     24 C         -12.7858   -3.8228   57.2400 C.3     1  UNL        -0.0379
     25 H          -9.7656   -1.9302   54.0521 H       1  UNL         0.0280
     26 H         -10.2299   -2.7161   55.5569 H       1  UNL         0.0280
     27 H          -9.1551   -1.3029   55.5815 H       1  UNL         0.0280
     28 H         -11.2066   -0.3840   53.0817 H       1  UNL         0.0626
     29 H         -13.1303    1.1704   53.1453 H       1  UNL         0.0623
     30 H         -14.2654    1.6602   55.3061 H       1  UNL         0.0623
     31 H         -13.4768    0.5952   57.3891 H       1  UNL         0.0627
     32 H         -10.8047   -2.0267   57.5750 H       1  UNL         0.0624
     33 H         -10.2128    0.5735   57.9285 H       1  UNL         0.1504
     34 H          -8.1186    0.6782   59.6853 H       1  UNL         0.0402
     35 H          -7.9994    1.1828   62.0402 H       1  UNL         0.0288
     36 H          -8.3907   -0.5268   61.9264 H       1  UNL         0.0288
     37 H          -9.7790    0.6214   63.6570 H       1  UNL         0.0428
     38 H         -10.7985   -0.0307   62.3613 H       1  UNL         0.0428
     39 H          -9.8913    2.7647   62.6304 H       1  UNL         0.1222
     40 H         -11.3015    3.3387   60.8175 H       1  UNL         0.0428
     41 H         -11.7783    1.6433   60.6661 H       1  UNL         0.0428
     42 H          -9.0052    2.8462   60.1586 H       1  UNL         0.0288
     43 H         -10.0744    2.1529   58.9457 H       1  UNL         0.0288
     44 H         -14.3931   -0.5039   61.1473 H       1  UNL         0.0840
     45 H         -15.6028   -2.6852   60.8200 H       1  UNL         0.0639
     46 H         -14.8442   -4.2211   58.9989 H       1  UNL         0.0627
     47 H         -13.3931   -4.7355   57.1976 H       1  UNL         0.0280
     48 H         -11.7439   -4.1322   57.3875 H       1  UNL         0.0280
     49 H         -12.8657   -3.3338   56.2616 H       1  UNL         0.0280
@<TRIPOS>BOND
     1     1     2    1
     2     1    25    1
     3     1    26    1
     4     1    27    1
     5     2     3   ar
     6     2     7   ar
     7     3     4   ar
     8     3    28    1
     9     4     5   ar
    10     4    29    1
    11     5     6   ar
    12     5    30    1
    13     6     7   ar
    14     6    31    1
    15     7     8    1
    16     8     9    1
    17     8    18    1
    18     8    32    1
    19     9    10   am
    20     9    33    1
    21    10    11    2
    22    10    12    1
    23    12    13    1
    24    12    17    1
    25    12    34    1
    26    13    14    1
    27    13    35    1
    28    13    36    1
    29    14    15    1
    30    14    37    1
    31    14    38    1
    32    15    16    1
    33    15    39    1
    34    16    17    1
    35    16    40    1
    36    16    41    1
    37    17    42    1
    38    17    43    1
    39    18    19   ar
    40    18    23   ar
    41    19    20   ar
    42    20    21   ar
    43    20    44    1
    44    21    22   ar
    45    21    45    1
    46    22    23   ar
    47    22    46    1
    48    23    24    1
    49    24    47    1
    50    24    48    1
    51    24    49    1
@<TRIPOS>SUBSTRUCTURE
     1 UNL         1 TEMP              0 ****  ****    0 ROOT


##########                                Name:    ZINC001327099466
##########                DOCK_Rotatable_Bonds:                   7
##########                         Heavy_Atoms:                  27
##########                    Molecular_Weight:             374.483
##########                DOCK_Rotatable_Bonds:                   7
##########                       Formal_Charge:           0.0199998
##########                     HBond_Acceptors:                   7
##########                        HBond_Donors:                   1
##########                         Heavy_Atoms:                  27
##########                          Grid_Score:          -23.962698
##########                     Grid_vdw_energy:          -23.872244
##########                      Grid_es_energy:           -0.090454
##########           Internal_energy_repulsive:           19.413857

@<TRIPOS>MOLECULE
ZINC001327099466
 57 60 1 0 0
SMALL
USER_CHARGES


@<TRIPOS>ATOM
      1 O1        -10.1741    2.0630   55.3616 O.2     1  ZINC001327099466   -0.4800
      2 C2         -9.8201    0.9023   55.3891 C.2     1  ZINC001327099466    0.5300
      3 N3        -10.2935    0.0315   54.4757 N.am    1  ZINC001327099466   -0.6000
      4 C4        -11.1974    0.4643   53.4993 C.2     1  ZINC001327099466    0.2900
      5 N5        -12.3089   -0.1428   53.1539 N.2     1  ZINC001327099466   -0.3100
      6 N6        -12.9234    0.6114   52.1461 N.pl3   1  ZINC001327099466   -0.3500
      7 C7        -14.1870    0.2884   51.4789 C.3     1  ZINC001327099466    0.1700
      8 C8        -14.8823    1.5820   51.0497 C.3     1  ZINC001327099466   -0.1300
      9 C9        -16.2019    1.2446   50.3527 C.3     1  ZINC001327099466   -0.1200
     10 C10       -15.9219    0.3828   49.1199 C.3     1  ZINC001327099466   -0.1300
     11 C11       -15.2266   -0.9106   49.5492 C.3     1  ZINC001327099466   -0.1200
     12 C12       -13.9069   -0.5733   50.2460 C.3     1  ZINC001327099466   -0.1300
     13 C13       -12.1481    1.6881   51.8976 C.2     1  ZINC001327099466    0.0700
     14 C14       -11.0775    1.6277   52.7214 C.2     1  ZINC001327099466   -0.2700
     15 C15        -8.8553    0.4403   56.4312 C.2     1  ZINC001327099466    0.5100
     16 O16        -7.6651    0.4292   56.1941 O.2     1  ZINC001327099466   -0.5100
     17 N17        -9.3063    0.0355   57.6351 N.am    1  ZINC001327099466   -0.5700
     18 C18        -8.3693   -0.4217   58.6704 C.3     1  ZINC001327099466    0.0400
     19 C19        -8.8046   -1.8095   59.1513 C.3     1  ZINC001327099466   -0.1300
     20 C20       -10.2649   -1.7526   59.6059 C.3     1  ZINC001327099466   -0.1200
     21 C21       -11.1528   -1.3496   58.4264 C.3     1  ZINC001327099466    0.0800
     22 H22       -11.0313   -2.0696   57.6170 H       1  ZINC001327099466    0.0700
     23 O23       -12.5193   -1.3274   58.8438 O.3     1  ZINC001327099466   -0.3500
     24 C24       -12.8397   -0.2511   59.7276 C.3     1  ZINC001327099466    0.0600
     25 C25       -13.7857    0.7923   59.1100 C.3     1  ZINC001327099466   -0.1600
     26 C26       -14.9482   -0.0619   59.6428 C.3     1  ZINC001327099466   -0.1400
     27 C27       -13.9733   -0.5801   60.7132 C.3     1  ZINC001327099466   -0.1400
     28 C28       -10.7437    0.0487   57.9392 C.3     1  ZINC001327099466    0.0900
     29 H29       -10.0075   -0.8952   54.4952 H       1  ZINC001327099466    0.4300
     30 H30       -14.8313   -0.2595   52.1664 H       1  ZINC001327099466    0.1000
     31 H31       -15.0818    2.1959   51.9279 H       1  ZINC001327099466    0.0700
     32 H32       -14.2380    2.1298   50.3620 H       1  ZINC001327099466    0.0700
     33 H33       -16.8462    0.6967   51.0403 H       1  ZINC001327099466    0.0700
     34 H34       -16.6972    2.1662   50.0470 H       1  ZINC001327099466    0.0700
     35 H35       -16.8620    0.1425   48.6234 H       1  ZINC001327099466    0.0700
     36 H36       -15.2776    0.9308   48.4323 H       1  ZINC001327099466    0.0700
     37 H37       -15.8709   -1.4586   50.2367 H       1  ZINC001327099466    0.0700
     38 H38       -15.0271   -1.5247   48.6708 H       1  ZINC001327099466    0.0700
     39 H39       -13.2626   -0.0254   49.5585 H       1  ZINC001327099466    0.0700
     40 H40       -13.4116   -1.4949   50.5518 H       1  ZINC001327099466    0.0700
     41 H41       -12.3493    2.4626   51.1723 H       1  ZINC001327099466    0.1800
     42 H42       -10.2705    2.3439   52.7687 H       1  ZINC001327099466    0.1700
     43 H43        -7.3637   -0.4781   58.2540 H       1  ZINC001327099466    0.1600
     44 H44        -8.3816    0.2758   59.5080 H       1  ZINC001327099466    0.0700
     45 H45        -8.7053   -2.5250   58.3352 H       1  ZINC001327099466    0.0700
     46 H46        -8.1756   -2.1191   59.9859 H       1  ZINC001327099466    0.0900
     47 H47       -10.5697   -2.7331   59.9717 H       1  ZINC001327099466    0.0800
     48 H48       -10.3680   -1.0188   60.4054 H       1  ZINC001327099466    0.0800
     49 H49       -11.9598    0.1825   60.2030 H       1  ZINC001327099466    0.0700
     50 H50       -13.7162    1.7748   59.5765 H       1  ZINC001327099466    0.0900
     51 H51       -13.7382    0.8349   58.0219 H       1  ZINC001327099466    0.0700
     52 H52       -15.7712    0.5258   60.0496 H       1  ZINC001327099466    0.0700
     53 H53       -15.2803   -0.8311   58.9455 H       1  ZINC001327099466    0.0800
     54 H54       -14.0772   -1.6454   60.9194 H       1  ZINC001327099466    0.0800
     55 H55       -13.9551    0.0273   61.6181 H       1  ZINC001327099466    0.0900
     56 H56       -10.9511    0.7822   58.7183 H       1  ZINC001327099466    0.0900
     57 H57       -11.3041    0.3004   57.0388 H       1  ZINC001327099466    0.1000
@<TRIPOS>BOND
     1     1     2    2
     2     2     3   am
     3     2    15    1
     4     3     4    1
     5     3    29    1
     6     4    14    1
     7     4     5    2
     8     5     6    1
     9     6     7    1
    10     6    13    1
    11     7    12    1
    12     7     8    1
    13     7    30    1
    14     8     9    1
    15     8    31    1
    16     8    32    1
    17     9    10    1
    18     9    33    1
    19     9    34    1
    20    10    11    1
    21    10    35    1
    22    10    36    1
    23    11    12    1
    24    11    37    1
    25    11    38    1
    26    12    39    1
    27    12    40    1
    28    13    14    2
    29    13    41    1
    30    14    42    1
    31    15    16    2
    32    15    17   am
    33    17    28    1
    34    17    18    1
    35    18    19    1
    36    18    43    1
    37    18    44    1
    38    19    20    1
    39    19    45    1
    40    19    46    1
    41    20    21    1
    42    20    47    1
    43    20    48    1
    44    21    22    1
    45    21    23    1
    46    21    28    1
    47    23    24    1
    48    24    27    1
    49    24    25    1
    50    24    49    1
    51    25    26    1
    52    25    50    1
    53    25    51    1
    54    26    27    1
    55    26    52    1
    56    26    53    1
    57    27    54    1
    58    27    55    1
    59    28    56    1
    60    28    57    1
@<TRIPOS>SUBSTRUCTURE
     1 ZINC001327099466        1 TEMP              0 ****  ****    0 ROOT


##########                                Name:    ZINC001110536231
##########                DOCK_Rotatable_Bonds:                   8
##########                         Heavy_Atoms:                  24
##########                    Molecular_Weight:             329.442
##########                DOCK_Rotatable_Bonds:                   8
##########                       Formal_Charge:          -0.0400001
##########                     HBond_Acceptors:                   5
##########                        HBond_Donors:                   1
##########                         Heavy_Atoms:                  24
##########                          Grid_Score:          -23.917528
##########                     Grid_vdw_energy:          -22.307150
##########                      Grid_es_energy:           -1.610378
##########           Internal_energy_repulsive:           36.728336

@<TRIPOS>MOLECULE
ZINC001110536231
 51 53 1 0 0
SMALL
USER_CHARGES


@<TRIPOS>ATOM
      1 C1        -10.7807   -2.3379   56.0048 C.3     1  ZINC001110536231   -0.1300
      2 C2         -9.6170   -1.8318   55.1501 C.3     1  ZINC001110536231   -0.1000
      3 C3         -9.9897   -0.5121   54.5251 C.2     1  ZINC001110536231   -0.0200
      4 C4        -10.6634   -0.4802   53.1774 C.3     1  ZINC001110536231   -0.1300
      5 C5         -9.7240    0.6244   55.1628 C.2     1  ZINC001110536231   -0.2400
      6 C6         -9.0665    0.5932   56.4782 C.2     1  ZINC001110536231    0.5400
      7 O7         -7.9393    1.0316   56.6052 O.2     1  ZINC001110536231   -0.5300
      8 N8         -9.7133    0.0786   57.5428 N.am    1  ZINC001110536231   -0.7300
      9 C9         -9.0591    0.0491   58.8533 C.3     1  ZINC001110536231    0.1100
     10 H10        -8.0829    0.5316   58.8045 H       1  ZINC001110536231    0.1000
     11 C11        -8.9227   -1.4069   59.3619 C.3     1  ZINC001110536231   -0.1600
     12 C12        -9.7569   -1.4127   60.6783 C.3     1  ZINC001110536231    0.0500
     13 H13       -10.0967   -2.3918   61.0160 H       1  ZINC001110536231    0.1200
     14 C14        -8.9018   -0.6070   61.7024 C.3     1  ZINC001110536231   -0.1200
     15 C15        -9.0220    0.8540   61.2040 C.3     1  ZINC001110536231   -0.1100
     16 C16        -9.9557    0.7324   59.9295 C.3     1  ZINC001110536231    0.0400
     17 H17       -10.4625    1.6492   59.6282 H       1  ZINC001110536231    0.1200
     18 N18       -10.8400   -0.4225   60.3375 N.3     1  ZINC001110536231   -0.4900
     19 C19       -11.6583   -0.8835   59.2079 C.3     1  ZINC001110536231    0.0600
     20 C20       -12.9989   -1.3483   59.7155 C.ar    1  ZINC001110536231    0.0100
     21 C21       -13.4031   -2.6655   59.5496 C.ar    1  ZINC001110536231   -0.2100
     22 C22       -14.6377   -3.0586   60.0270 C.ar    1  ZINC001110536231    0.1400
     23 N23       -15.4323   -2.1992   60.6358 N.ar    1  ZINC001110536231   -0.5400
     24 C24       -15.0825   -0.9358   60.8128 C.ar    1  ZINC001110536231    0.3200
     25 O25       -15.9306   -0.0860   61.4449 O.3     1  ZINC001110536231   -0.3100
     26 C26       -16.2536    1.1306   60.7685 C.3     1  ZINC001110536231    0.0400
     27 C27       -13.8531   -0.4722   60.3630 C.ar    1  ZINC001110536231   -0.1700
     28 H28       -10.5111   -3.2924   56.4569 H       1  ZINC001110536231    0.0500
     29 H29       -10.9976   -1.6128   56.7892 H       1  ZINC001110536231    0.0700
     30 H30       -11.6623   -2.4691   55.3775 H       1  ZINC001110536231    0.0400
     31 H31        -8.7354   -1.7005   55.7775 H       1  ZINC001110536231    0.0900
     32 H32        -9.4001   -2.5569   54.3657 H       1  ZINC001110536231    0.0600
     33 H33       -11.7447   -0.5149   53.3107 H       1  ZINC001110536231    0.0800
     34 H34       -10.3908    0.4378   52.6565 H       1  ZINC001110536231    0.0700
     35 H35       -10.3420   -1.3403   52.5900 H       1  ZINC001110536231    0.0700
     36 H36        -9.9912    1.5701   54.7148 H       1  ZINC001110536231    0.1200
     37 H37       -10.6119   -0.2722   57.4414 H       1  ZINC001110536231    0.4000
     38 H38        -9.3419   -2.1067   58.6390 H       1  ZINC001110536231    0.0700
     39 H39        -7.8792   -1.6453   59.5679 H       1  ZINC001110536231    0.0800
     40 H40        -9.3132   -0.7049   62.7069 H       1  ZINC001110536231    0.0700
     41 H41        -7.8631   -0.9365   61.6782 H       1  ZINC001110536231    0.0700
     42 H42        -9.4929    1.4803   61.9617 H       1  ZINC001110536231    0.0800
     43 H43        -8.0428    1.2487   60.9329 H       1  ZINC001110536231    0.0700
     44 H44       -11.8006   -0.0637   58.5038 H       1  ZINC001110536231    0.0900
     45 H45       -11.1534   -1.7094   58.7067 H       1  ZINC001110536231    0.0700
     46 H46       -12.7590   -3.3755   59.0520 H       1  ZINC001110536231    0.1300
     47 H47       -14.9571   -4.0825   59.9001 H       1  ZINC001110536231    0.1600
     48 H48       -16.9384    1.7164   61.3816 H       1  ZINC001110536231    0.1000
     49 H49       -15.3421    1.7024   60.5941 H       1  ZINC001110536231    0.0600
     50 H50       -16.7267    0.9009   59.8137 H       1  ZINC001110536231    0.0600
     51 H51       -13.5705    0.5598   60.5095 H       1  ZINC001110536231    0.1400
@<TRIPOS>BOND
     1     1     2    1
     2     1    28    1
     3     1    29    1
     4     1    30    1
     5     2     3    1
     6     2    31    1
     7     2    32    1
     8     3     4    1
     9     3     5    2
    10     4    33    1
    11     4    34    1
    12     4    35    1
    13     5     6    1
    14     5    36    1
    15     6     7    2
    16     6     8   am
    17     8     9    1
    18     8    37    1
    19     9    10    1
    20     9    16    1
    21     9    11    1
    22    11    12    1
    23    11    38    1
    24    11    39    1
    25    12    13    1
    26    12    18    1
    27    12    14    1
    28    14    15    1
    29    14    40    1
    30    14    41    1
    31    15    16    1
    32    15    42    1
    33    15    43    1
    34    16    17    1
    35    16    18    1
    36    18    19    1
    37    19    20    1
    38    19    44    1
    39    19    45    1
    40    20    27   ar
    41    20    21   ar
    42    21    22   ar
    43    21    46    1
    44    22    23   ar
    45    22    47    1
    46    23    24   ar
    47    24    25    1
    48    24    27   ar
    49    25    26    1
    50    26    48    1
    51    26    49    1
    52    26    50    1
    53    27    51    1
@<TRIPOS>SUBSTRUCTURE
     1 ZINC001110536231        1 TEMP              0 ****  ****    0 ROOT


##########                                Name:    ZINC000130059363
##########                DOCK_Rotatable_Bonds:                   4
##########                         Heavy_Atoms:                  29
##########                    Molecular_Weight:             389.497
##########                DOCK_Rotatable_Bonds:                   4
##########                       Formal_Charge:          -0.0100003
##########                     HBond_Acceptors:                   5
##########                        HBond_Donors:                   0
##########                         Heavy_Atoms:                  29
##########                          Grid_Score:          -23.910480
##########                     Grid_vdw_energy:          -24.162458
##########                      Grid_es_energy:            0.251977
##########           Internal_energy_repulsive:           22.280474

@<TRIPOS>MOLECULE
ZINC000130059363
 56 60 1 0 0
SMALL
USER_CHARGES


@<TRIPOS>ATOM
      1 C1         -8.2271    0.7212   53.6417 C.3     1  ZINC000130059363   -0.1200
      2 C2         -7.7474    1.6690   54.7106 C.ar    1  ZINC000130059363    0.1900
      3 N3         -6.4847    2.0348   54.7367 N.ar    1  ZINC000130059363   -0.4800
      4 C4         -6.0170    2.8679   55.6591 C.ar    1  ZINC000130059363    0.2000
      5 C5         -4.5845    3.2482   55.6425 C.ar    1  ZINC000130059363   -0.0600
      6 C6         -3.9289    3.4534   54.4292 C.ar    1  ZINC000130059363   -0.1000
      7 C7         -2.5953    3.8078   54.4200 C.ar    1  ZINC000130059363   -0.1200
      8 C8         -1.9087    3.9590   55.6115 C.ar    1  ZINC000130059363   -0.1000
      9 C9         -2.5538    3.7562   56.8183 C.ar    1  ZINC000130059363   -0.1300
     10 C10        -3.8888    3.4076   56.8402 C.ar    1  ZINC000130059363   -0.0700
     11 C11        -6.8564    3.3900   56.6430 C.ar    1  ZINC000130059363   -0.1800
     12 C12        -8.1898    3.0312   56.6514 C.ar    1  ZINC000130059363   -0.0400
     13 C13        -8.6499    2.1541   55.6597 C.ar    1  ZINC000130059363   -0.1900
     14 C14       -10.0674    1.7403   55.6251 C.2     1  ZINC000130059363    0.5700
     15 O15       -10.8110    2.1890   54.7745 O.2     1  ZINC000130059363   -0.5200
     16 N16       -10.5364    0.8653   56.5367 N.am    1  ZINC000130059363   -0.6000
     17 C17       -11.9425    0.4376   56.5138 C.3     1  ZINC000130059363    0.1000
     18 C18       -11.9821   -1.0924   56.4552 C.3     1  ZINC000130059363   -0.1500
     19 C19       -11.1662   -1.6754   57.6035 C.3     1  ZINC000130059363    0.1500
     20 H20       -11.1822   -2.7616   57.5138 H       1  ZINC000130059363    0.0700
     21 C21        -9.7123   -1.2135   57.5283 C.3     1  ZINC000130059363   -0.1100
     22 H22        -9.2473   -1.5886   56.6167 H       1  ZINC000130059363    0.1000
     23 C23        -8.9755   -1.7616   58.7607 C.3     1  ZINC000130059363   -0.1200
     24 C24        -9.5278   -1.0552   60.0014 C.3     1  ZINC000130059363   -0.1400
     25 C25       -11.0290   -1.0763   59.9848 C.2     1  ZINC000130059363    0.5200
     26 O26       -11.6178   -0.8481   61.0202 O.2     1  ZINC000130059363   -0.5400
     27 N27       -11.7414   -1.3189   58.8909 N.am    1  ZINC000130059363   -0.5700
     28 C28       -13.2018   -1.2532   58.9869 C.3     1  ZINC000130059363    0.0700
     29 C29       -13.9960   -2.4758   58.5230 C.3     1  ZINC000130059363   -0.1800
     30 C30       -13.8835   -2.1580   60.0153 C.3     1  ZINC000130059363   -0.1600
     31 C31        -9.6529    0.3133   57.5710 C.3     1  ZINC000130059363    0.1100
     32 H32        -8.6511    1.2908   52.8148 H       1  ZINC000130059363    0.0800
     33 H33        -7.3882    0.1262   53.2806 H       1  ZINC000130059363    0.0800
     34 H34        -8.9889    0.0611   54.0566 H       1  ZINC000130059363    0.1000
     35 H35        -4.4637    3.3350   53.4983 H       1  ZINC000130059363    0.1300
     36 H36        -2.0864    3.9670   53.4808 H       1  ZINC000130059363    0.1300
     37 H37        -0.8650    4.2360   55.5995 H       1  ZINC000130059363    0.1300
     38 H38        -2.0126    3.8753   57.7454 H       1  ZINC000130059363    0.1300
     39 H39        -4.3914    3.2495   57.7830 H       1  ZINC000130059363    0.1400
     40 H40        -6.4680    4.0667   57.3898 H       1  ZINC000130059363    0.1400
     41 H41        -8.8626    3.4198   57.4016 H       1  ZINC000130059363    0.1400
     42 H42       -12.4460    0.7834   57.4167 H       1  ZINC000130059363    0.0700
     43 H43       -12.4378    0.8515   55.6355 H       1  ZINC000130059363    0.0900
     44 H44       -13.0149   -1.4314   56.5359 H       1  ZINC000130059363    0.0900
     45 H45       -11.5646   -1.4294   55.5064 H       1  ZINC000130059363    0.0800
     46 H46        -9.1447   -2.8352   58.8431 H       1  ZINC000130059363    0.0800
     47 H47        -7.9077   -1.5629   58.6694 H       1  ZINC000130059363    0.0900
     48 H48        -9.1694   -1.5641   60.8962 H       1  ZINC000130059363    0.1000
     49 H49        -9.1812   -0.0219   60.0129 H       1  ZINC000130059363    0.1000
     50 H50       -13.6407   -0.2712   58.8112 H       1  ZINC000130059363    0.1100
     51 H51       -14.9577   -2.2982   58.0417 H       1  ZINC000130059363    0.1100
     52 H52       -13.4319   -3.3291   58.1461 H       1  ZINC000130059363    0.1000
     53 H53       -13.2454   -2.8021   60.6203 H       1  ZINC000130059363    0.1000
     54 H54       -14.7712   -1.7713   60.5159 H       1  ZINC000130059363    0.1000
     55 H55        -8.6296    0.6432   57.3918 H       1  ZINC000130059363    0.1000
     56 H56        -9.9836    0.6634   58.5489 H       1  ZINC000130059363    0.0700
@<TRIPOS>BOND
     1     1     2    1
     2     1    32    1
     3     1    33    1
     4     1    34    1
     5     2    13   ar
     6     2     3   ar
     7     3     4   ar
     8     4     5    1
     9     4    11   ar
    10     5    10   ar
    11     5     6   ar
    12     6     7   ar
    13     6    35    1
    14     7     8   ar
    15     7    36    1
    16     8     9   ar
    17     8    37    1
    18     9    10   ar
    19     9    38    1
    20    10    39    1
    21    11    12   ar
    22    11    40    1
    23    12    13   ar
    24    12    41    1
    25    13    14    1
    26    14    15    2
    27    14    16   am
    28    16    31    1
    29    16    17    1
    30    17    18    1
    31    17    42    1
    32    17    43    1
    33    18    19    1
    34    18    44    1
    35    18    45    1
    36    19    20    1
    37    19    27    1
    38    19    21    1
    39    21    22    1
    40    21    23    1
    41    21    31    1
    42    23    24    1
    43    23    46    1
    44    23    47    1
    45    24    25    1
    46    24    48    1
    47    24    49    1
    48    25    26    2
    49    25    27   am
    50    27    28    1
    51    28    30    1
    52    28    29    1
    53    28    50    1
    54    29    30    1
    55    29    51    1
    56    29    52    1
    57    30    53    1
    58    30    54    1
    59    31    55    1
    60    31    56    1
@<TRIPOS>SUBSTRUCTURE
     1 ZINC000130059363        1 TEMP              0 ****  ****    0 ROOT


##########                                Name:    ZINC000341804698
##########                DOCK_Rotatable_Bonds:                   7
##########                         Heavy_Atoms:                  24
##########                    Molecular_Weight:             342.318
##########                DOCK_Rotatable_Bonds:                   7
##########                       Formal_Charge:                0.02
##########                     HBond_Acceptors:                   8
##########                        HBond_Donors:                   0
##########                         Heavy_Atoms:                  24
##########                          Grid_Score:          -23.835972
##########                     Grid_vdw_energy:          -22.574467
##########                      Grid_es_energy:           -1.261506
##########           Internal_energy_repulsive:           28.780985

@<TRIPOS>MOLECULE
ZINC000341804698
 41 42 1 0 0
SMALL
USER_CHARGES


@<TRIPOS>ATOM
      1 C1         -8.5768    1.0368   61.8865 C.3     1  ZINC000341804698    0.0300
      2 O2         -9.7183    0.2502   61.5397 O.3     1  ZINC000341804698   -0.3900
      3 C3         -9.4107   -0.9113   60.7663 C.3     1  ZINC000341804698    0.0700
      4 C4        -10.2734   -0.9258   59.5028 C.3     1  ZINC000341804698    0.0400
      5 C5        -11.2218   -2.0497   59.5694 C.1     1  ZINC000341804698    0.2200
      6 N6        -11.9536   -2.9169   59.6207 N.1     1  ZINC000341804698   -0.4200
      7 C7        -11.0483    0.3897   59.3994 C.3     1  ZINC000341804698   -0.1200
      8 C8        -11.9369    0.3576   58.1519 C.3     1  ZINC000341804698    0.1100
      9 N9        -11.0997    0.0570   56.9825 N.am    1  ZINC000341804698   -0.6000
     10 C10       -11.1151    0.8622   55.9018 C.2     1  ZINC000341804698    0.5700
     11 O11       -11.8263    1.8478   55.8883 O.2     1  ZINC000341804698   -0.5200
     12 C12       -10.2669    0.5465   54.7326 C.ar    1  ZINC000341804698   -0.0900
     13 C13       -10.6032   -0.5134   53.8893 C.ar    1  ZINC000341804698   -0.1100
     14 C14        -9.8093   -0.8054   52.7989 C.ar    1  ZINC000341804698   -0.0800
     15 C15        -8.6805   -0.0509   52.5384 C.ar    1  ZINC000341804698   -0.1700
     16 C16        -8.3377    1.0052   53.3721 C.ar    1  ZINC000341804698    0.1100
     17 O17        -7.2266    1.7433   53.1115 O.3     1  ZINC000341804698   -0.3100
     18 C18        -6.3337    1.2420   52.1147 C.3     1  ZINC000341804698    0.6000
     19 F19        -6.0148   -0.0896   52.4015 F       1  ZINC000341804698   -0.1600
     20 F20        -6.9476    1.3146   50.8597 F       1  ZINC000341804698   -0.1300
     21 F21        -5.1646    2.0102   52.1070 F       1  ZINC000341804698   -0.1600
     22 C22        -9.1306    1.3107   54.4652 C.ar    1  ZINC000341804698   -0.0700
     23 C23       -10.2450   -1.1376   57.0140 C.3     1  ZINC000341804698    0.0900
     24 C24        -9.3754   -1.0887   58.2742 C.3     1  ZINC000341804698   -0.1200
     25 H25        -7.8845    0.4334   62.4737 H       1  ZINC000341804698    0.0400
     26 H26        -8.0808    1.3777   60.9777 H       1  ZINC000341804698    0.0500
     27 H27        -8.8942    1.8993   62.4725 H       1  ZINC000341804698    0.0900
     28 H28        -8.3573   -0.8931   60.4869 H       1  ZINC000341804698    0.0700
     29 H29        -9.6148   -1.8051   61.3560 H       1  ZINC000341804698    0.0600
     30 H30       -11.6701    0.5162   60.2857 H       1  ZINC000341804698    0.1000
     31 H31       -10.3467    1.2205   59.3250 H       1  ZINC000341804698    0.0900
     32 H32       -12.6977   -0.4149   58.2649 H       1  ZINC000341804698    0.0700
     33 H33       -12.4154    1.3279   58.0191 H       1  ZINC000341804698    0.1100
     34 H34       -11.4841   -1.1051   54.0900 H       1  ZINC000341804698    0.1400
     35 H35       -10.0704   -1.6261   52.1472 H       1  ZINC000341804698    0.1400
     36 H36        -8.0629   -0.2840   51.6836 H       1  ZINC000341804698    0.1400
     37 H37        -8.8653    2.1322   55.1142 H       1  ZINC000341804698    0.1500
     38 H38       -10.8677   -2.0320   57.0341 H       1  ZINC000341804698    0.0800
     39 H39        -9.6071   -1.1539   56.1303 H       1  ZINC000341804698    0.1100
     40 H40        -8.6895   -0.2440   58.2104 H       1  ZINC000341804698    0.1000
     41 H41        -8.8063   -2.0145   58.3597 H       1  ZINC000341804698    0.0900
@<TRIPOS>BOND
     1     1     2    1
     2     1    25    1
     3     1    26    1
     4     1    27    1
     5     2     3    1
     6     3     4    1
     7     3    28    1
     8     3    29    1
     9     4    24    1
    10     4     5    1
    11     4     7    1
    12     5     6    3
    13     7     8    1
    14     7    30    1
    15     7    31    1
    16     8     9    1
    17     8    32    1
    18     8    33    1
    19     9    10   am
    20     9    23    1
    21    10    11    2
    22    10    12    1
    23    12    22   ar
    24    12    13   ar
    25    13    14   ar
    26    13    34    1
    27    14    15   ar
    28    14    35    1
    29    15    16   ar
    30    15    36    1
    31    16    17    1
    32    16    22   ar
    33    17    18    1
    34    18    19    1
    35    18    20    1
    36    18    21    1
    37    22    37    1
    38    23    24    1
    39    23    38    1
    40    23    39    1
    41    24    40    1
    42    24    41    1
@<TRIPOS>SUBSTRUCTURE
     1 ZINC000341804698        1 TEMP              0 ****  ****    0 ROOT


##########                                Name:    ZINC000845755710
##########                DOCK_Rotatable_Bonds:                   3
##########                         Heavy_Atoms:                  24
##########                    Molecular_Weight:             349.814
##########                DOCK_Rotatable_Bonds:                   3
##########                       Formal_Charge:         -0.00999974
##########                     HBond_Acceptors:                   6
##########                        HBond_Donors:                   0
##########                         Heavy_Atoms:                  24
##########                          Grid_Score:          -23.774929
##########                     Grid_vdw_energy:          -23.516788
##########                      Grid_es_energy:           -0.258141
##########           Internal_energy_repulsive:           16.259306

@<TRIPOS>MOLECULE
ZINC000845755710
 44 47 1 0 0
SMALL
USER_CHARGES


@<TRIPOS>ATOM
      1 C1        -12.2024   -0.5874   59.7116 C.3     1  ZINC000845755710   -0.1700
      2 C2        -10.8483   -0.4918   59.0058 C.3     1  ZINC000845755710    0.2600
      3 C3        -11.0325   -0.7303   57.5059 C.3     1  ZINC000845755710   -0.0900
      4 C4        -11.8148    0.4354   56.8965 C.3     1  ZINC000845755710   -0.1300
      5 C5        -12.0273    0.1765   55.4017 C.3     1  ZINC000845755710    0.1100
      6 N6        -10.7217   -0.0677   54.7737 N.am    1  ZINC000845755710   -0.6000
      7 C7        -10.3312    0.6480   53.7006 C.2     1  ZINC000845755710    0.5900
      8 O8        -11.0623    1.5059   53.2428 O.2     1  ZINC000845755710   -0.5200
      9 C9         -9.0212    0.3920   53.0829 C.2     1  ZINC000845755710   -0.2200
     10 C10        -8.6097   -0.7533   52.4745 C.2     1  ZINC000845755710    0.0600
     11 O11        -7.3547   -0.6082   52.0337 O.3     1  ZINC000845755710   -0.1800
     12 C12        -6.8724    0.6191   52.3199 C.ar    1  ZINC000845755710    0.0500
     13 C13        -5.6532    1.2398   52.0787 C.ar    1  ZINC000845755710   -0.0900
     14 C14        -5.4442    2.5358   52.5003 C.ar    1  ZINC000845755710   -0.0800
     15 C15        -6.4422    3.2320   53.1670 C.ar    1  ZINC000845755710   -0.0400
     16 Cl16       -6.1585    4.8629   53.6901 Cl      1  ZINC000845755710   -0.0600
     17 C17        -7.6596    2.6317   53.4149 C.ar    1  ZINC000845755710   -0.0500
     18 C18        -7.8820    1.3268   52.9886 C.ar    1  ZINC000845755710   -0.0900
     19 C19        -9.8495   -1.1066   55.3383 C.3     1  ZINC000845755710    0.1000
     20 C20        -9.6615   -0.8334   56.8339 C.3     1  ZINC000845755710   -0.1300
     21 O21       -10.2838    0.8131   59.2187 O.3     1  ZINC000845755710   -0.3700
     22 C22        -9.3969    0.6524   60.3519 C.3     1  ZINC000845755710    0.0100
     23 C23        -8.8315   -0.7693   60.1098 C.3     1  ZINC000845755710    0.0200
     24 O24        -9.9543   -1.4750   59.5438 O.3     1  ZINC000845755710   -0.3800
     25 H25       -12.0675   -0.4224   60.7806 H       1  ZINC000845755710    0.0600
     26 H26       -12.8760    0.1694   59.3094 H       1  ZINC000845755710    0.0800
     27 H27       -12.6285   -1.5771   59.5476 H       1  ZINC000845755710    0.0800
     28 H28       -11.5836   -1.6578   57.3507 H       1  ZINC000845755710    0.0900
     29 H29       -12.7819    0.5228   57.3918 H       1  ZINC000845755710    0.0800
     30 H30       -11.2527    1.3597   57.0294 H       1  ZINC000845755710    0.0800
     31 H31       -12.6655   -0.6971   55.2692 H       1  ZINC000845755710    0.0700
     32 H32       -12.4962    1.0471   54.9431 H       1  ZINC000845755710    0.1000
     33 H33        -9.2068   -1.6463   52.3641 H       1  ZINC000845755710    0.2200
     34 H34        -4.8689    0.7071   51.5613 H       1  ZINC000845755710    0.1500
     35 H35        -4.4944    3.0134   52.3102 H       1  ZINC000845755710    0.1500
     36 H36        -8.4366    3.1734   53.9338 H       1  ZINC000845755710    0.1400
     37 H37       -10.3101   -2.0849   55.2007 H       1  ZINC000845755710    0.0800
     38 H38        -8.8814   -1.0827   54.8379 H       1  ZINC000845755710    0.0900
     39 H39        -9.1195    0.1030   56.9673 H       1  ZINC000845755710    0.0700
     40 H40        -9.0958   -1.6489   57.2844 H       1  ZINC000845755710    0.0800
     41 H41        -8.6013    1.3973   60.3333 H       1  ZINC000845755710    0.1100
     42 H42        -9.9501    0.6979   61.2899 H       1  ZINC000845755710    0.0800
     43 H43        -8.0007   -0.7386   59.4048 H       1  ZINC000845755710    0.0800
     44 H44        -8.5234   -1.2266   61.0501 H       1  ZINC000845755710    0.1000
@<TRIPOS>BOND
     1     1     2    1
     2     1    25    1
     3     1    26    1
     4     1    27    1
     5     2    24    1
     6     2     3    1
     7     2    21    1
     8     3    20    1
     9     3     4    1
    10     3    28    1
    11     4     5    1
    12     4    29    1
    13     4    30    1
    14     5     6    1
    15     5    31    1
    16     5    32    1
    17     6     7   am
    18     6    19    1
    19     7     8    2
    20     7     9    1
    21     9    18    1
    22     9    10    2
    23    10    11    1
    24    10    33    1
    25    11    12    1
    26    12    18   ar
    27    12    13   ar
    28    13    14   ar
    29    13    34    1
    30    14    15   ar
    31    14    35    1
    32    15    16    1
    33    15    17   ar
    34    17    18   ar
    35    17    36    1
    36    19    20    1
    37    19    37    1
    38    19    38    1
    39    20    39    1
    40    20    40    1
    41    21    22    1
    42    22    23    1
    43    22    41    1
    44    22    42    1
    45    23    24    1
    46    23    43    1
    47    23    44    1
@<TRIPOS>SUBSTRUCTURE
     1 ZINC000845755710        1 TEMP              0 ****  ****    0 ROOT


##########                                Name:    ZINC000864477301
##########                DOCK_Rotatable_Bonds:                   6
##########                         Heavy_Atoms:                  26
##########                    Molecular_Weight:             393.891
##########                DOCK_Rotatable_Bonds:                   6
##########                       Formal_Charge:         -0.00999978
##########                     HBond_Acceptors:                   7
##########                        HBond_Donors:                   1
##########                         Heavy_Atoms:                  26
##########                          Grid_Score:          -23.700069
##########                     Grid_vdw_energy:          -20.080788
##########                      Grid_es_energy:           -3.619282
##########           Internal_energy_repulsive:           19.053148

@<TRIPOS>MOLECULE
ZINC000864477301
 46 47 1 0 0
SMALL
USER_CHARGES


@<TRIPOS>ATOM
      1 C1        -10.6962   -1.0584   52.4048 C.3     1  ZINC000864477301   -0.1500
      2 C2         -9.2115   -1.1922   52.7494 C.3     1  ZINC000864477301    0.0600
      3 O3         -8.7997   -0.0620   53.5626 O.3     1  ZINC000864477301   -0.3500
      4 C4         -9.1760   -0.0696   54.8560 C.2     1  ZINC000864477301    0.5100
      5 O5        -10.1625   -0.6904   55.1978 O.2     1  ZINC000864477301   -0.5000
      6 C6         -8.3891    0.6771   55.8587 C.ar    1  ZINC000864477301   -0.1400
      7 C7         -7.4200    1.5944   55.4480 C.ar    1  ZINC000864477301   -0.0300
      8 C8         -6.6886    2.2884   56.3899 C.ar    1  ZINC000864477301   -0.1500
      9 C9         -6.9134    2.0766   57.7384 C.ar    1  ZINC000864477301   -0.0100
     10 C10        -7.8724    1.1688   58.1524 C.ar    1  ZINC000864477301   -0.4900
     11 S11        -8.1504    0.9069   59.8725 S.o     1  ZINC000864477301    1.3800
     12 O12        -8.7134   -0.3973   59.9104 O.2     1  ZINC000864477301   -0.8100
     13 C13        -9.4301    2.1296   60.2698 C.3     1  ZINC000864477301   -0.4600
     14 H14        -9.0267    3.1336   60.1381 H       1  ZINC000864477301    0.1400
     15 C15       -10.6281    1.9351   59.3383 C.3     1  ZINC000864477301   -0.1400
     16 C16        -9.8709    1.9490   61.6995 C.2     1  ZINC000864477301    0.5500
     17 O17       -11.0520    1.8747   61.9652 O.2     1  ZINC000864477301   -0.5100
     18 N18        -8.9528    1.8699   62.6829 N.am    1  ZINC000864477301   -0.6800
     19 C19        -9.3622    1.7021   64.0110 C.ar    1  ZINC000864477301    0.1400
     20 C20       -10.1085    2.6899   64.6388 C.ar    1  ZINC000864477301   -0.0600
     21 C21       -10.4791    3.9449   63.8914 C.3     1  ZINC000864477301   -0.1100
     22 C22       -10.5117    2.5213   65.9495 C.ar    1  ZINC000864477301   -0.1100
     23 C23       -10.1729    1.3703   66.6364 C.ar    1  ZINC000864477301   -0.1000
     24 C24        -9.4290    0.3839   66.0145 C.ar    1  ZINC000864477301   -0.1100
     25 C25        -9.0275    0.5435   64.7020 C.ar    1  ZINC000864477301   -0.0200
     26 Cl26       -8.0944   -0.6950   63.9218 Cl      1  ZINC000864477301   -0.0600
     27 C27        -8.6151    0.4729   57.2216 C.ar    1  ZINC000864477301    0.0100
     28 H28       -11.2822   -1.0393   53.3237 H       1  ZINC000864477301    0.0700
     29 H29       -10.8588   -0.1339   51.8509 H       1  ZINC000864477301    0.0700
     30 H30       -11.0054   -1.9069   51.7944 H       1  ZINC000864477301    0.0800
     31 H31        -9.0489   -2.1167   53.3033 H       1  ZINC000864477301    0.0700
     32 H32        -8.6255   -1.2113   51.8305 H       1  ZINC000864477301    0.0700
     33 H33        -7.2431    1.7602   54.3956 H       1  ZINC000864477301    0.1400
     34 H34        -5.9386    2.9982   56.0736 H       1  ZINC000864477301    0.1400
     35 H35        -6.3375    2.6219   58.4714 H       1  ZINC000864477301    0.1500
     36 H36       -11.3971    2.6699   59.5771 H       1  ZINC000864477301    0.0700
     37 H37       -10.3093    2.0658   58.3042 H       1  ZINC000864477301    0.0700
     38 H38       -11.0316    0.9311   59.4700 H       1  ZINC000864477301    0.0700
     39 H39        -8.0081    1.9294   62.4705 H       1  ZINC000864477301    0.4100
     40 H40       -11.4345    3.7989   63.3873 H       1  ZINC000864477301    0.0800
     41 H41       -10.5616    4.7748   64.5931 H       1  ZINC000864477301    0.0700
     42 H42        -9.7093    4.1687   63.1529 H       1  ZINC000864477301    0.0700
     43 H43       -11.0920    3.2898   66.4383 H       1  ZINC000864477301    0.1400
     44 H44       -10.4895    1.2413   67.6607 H       1  ZINC000864477301    0.1400
     45 H45        -9.1657   -0.5141   66.5540 H       1  ZINC000864477301    0.1400
     46 H46        -9.3634   -0.2351   57.5459 H       1  ZINC000864477301    0.1400
@<TRIPOS>BOND
     1     1     2    1
     2     1    28    1
     3     1    29    1
     4     1    30    1
     5     2     3    1
     6     2    31    1
     7     2    32    1
     8     3     4    1
     9     4     5    2
    10     4     6    1
    11     6    27   ar
    12     6     7   ar
    13     7     8   ar
    14     7    33    1
    15     8     9   ar
    16     8    34    1
    17     9    10   ar
    18     9    35    1
    19    10    11    1
    20    10    27   ar
    21    11    12    2
    22    11    13    1
    23    13    14    1
    24    13    15    1
    25    13    16    1
    26    15    36    1
    27    15    37    1
    28    15    38    1
    29    16    17    2
    30    16    18   am
    31    18    19    1
    32    18    39    1
    33    19    25   ar
    34    19    20   ar
    35    20    21    1
    36    20    22   ar
    37    21    40    1
    38    21    41    1
    39    21    42    1
    40    22    23   ar
    41    22    43    1
    42    23    24   ar
    43    23    44    1
    44    24    25   ar
    45    24    45    1
    46    25    26    1
    47    27    46    1
@<TRIPOS>SUBSTRUCTURE
     1 ZINC000864477301        1 TEMP              0 ****  ****    0 ROOT


##########                                Name:    ZINC001456096501
##########                DOCK_Rotatable_Bonds:                   7
##########                         Heavy_Atoms:                  24
##########                    Molecular_Weight:             333.431
##########                DOCK_Rotatable_Bonds:                   7
##########                       Formal_Charge:          -0.0200003
##########                     HBond_Acceptors:                   6
##########                        HBond_Donors:                   0
##########                         Heavy_Atoms:                  24
##########                          Grid_Score:          -23.576691
##########                     Grid_vdw_energy:          -23.974552
##########                      Grid_es_energy:            0.397862
##########           Internal_energy_repulsive:          140.866562

@<TRIPOS>MOLECULE
ZINC001456096501
 51 52 1 0 0
SMALL
USER_CHARGES


@<TRIPOS>ATOM
      1 C1         -9.5793    4.0316   52.2722 C.3     1  ZINC001456096501    0.0400
      2 O2         -9.4699    2.6243   52.4950 O.3     1  ZINC001456096501   -0.2900
      3 C3         -8.2523    2.0640   52.3015 C.ar    1  ZINC001456096501    0.3700
      4 N4         -7.2384    2.8154   51.9074 N.ar    1  ZINC001456096501   -0.5400
      5 C5         -6.0360    2.3111   51.7074 C.ar    1  ZINC001456096501    0.1600
      6 C6         -5.7822    0.9656   51.9024 C.ar    1  ZINC001456096501   -0.2200
      7 C7         -6.8072    0.1324   52.3147 C.ar    1  ZINC001456096501   -0.0200
      8 C8         -8.0731    0.6905   52.5258 C.ar    1  ZINC001456096501   -0.2000
      9 C9         -9.2014   -0.1519   52.9663 C.2     1  ZINC001456096501    0.5900
     10 O10        -9.6539   -0.9998   52.2216 O.2     1  ZINC001456096501   -0.5100
     11 N11        -9.7303    0.0186   54.1942 N.am    1  ZINC001456096501   -0.6200
     12 C12        -9.2823    1.0018   55.1913 C.3     1  ZINC001456096501    0.1000
     13 C13       -10.1595    0.8131   56.4468 C.3     1  ZINC001456096501   -0.1200
     14 C14       -10.6762   -0.6419   56.2945 C.3     1  ZINC001456096501   -0.1200
     15 H15        -9.9372   -1.3585   56.6530 H       1  ZINC001456096501    0.0900
     16 C16       -12.0119   -0.8280   57.0170 C.3     1  ZINC001456096501    0.1200
     17 N17       -11.8535   -1.8128   58.0901 N.am    1  ZINC001456096501   -0.6200
     18 C18       -10.8417   -2.8658   57.9743 C.3     1  ZINC001456096501    0.0600
     19 C19       -12.6385   -1.7498   59.1839 C.2     1  ZINC001456096501    0.5200
     20 O20       -12.5072   -2.5648   60.0723 O.2     1  ZINC001456096501   -0.5300
     21 C21       -13.6791   -0.6664   59.3030 C.3     1  ZINC001456096501   -0.0800
     22 C22       -12.9917    0.6736   59.5732 C.3     1  ZINC001456096501   -0.1300
     23 C23       -14.4747   -0.5776   57.9991 C.3     1  ZINC001456096501   -0.1500
     24 C24       -14.6276   -0.9949   60.4578 C.3     1  ZINC001456096501   -0.1700
     25 C25       -10.8582   -0.7457   54.7574 C.3     1  ZINC001456096501    0.1200
     26 H26        -8.9036    4.5597   52.9451 H       1  ZINC001456096501    0.0600
     27 H27        -9.3137    4.2578   51.2395 H       1  ZINC001456096501    0.0600
     28 H28       -10.6040    4.3510   52.4621 H       1  ZINC001456096501    0.1000
     29 H29        -5.2355    2.9605   51.3852 H       1  ZINC001456096501    0.1700
     30 H30        -4.7921    0.5683   51.7338 H       1  ZINC001456096501    0.1500
     31 H31        -6.6337   -0.9217   52.4734 H       1  ZINC001456096501    0.1500
     32 H32        -8.2358    0.8265   55.4404 H       1  ZINC001456096501    0.0700
     33 H33        -9.4083    2.0110   54.7993 H       1  ZINC001456096501    0.0700
     34 H34        -9.5631    0.9177   57.3532 H       1  ZINC001456096501    0.0900
     35 H35       -10.9899    1.5193   56.4468 H       1  ZINC001456096501    0.0800
     36 H36       -12.3310    0.1238   57.4416 H       1  ZINC001456096501    0.0800
     37 H37       -12.7621   -1.1799   56.3088 H       1  ZINC001456096501    0.0900
     38 H38        -9.9181   -2.5363   58.4503 H       1  ZINC001456096501    0.0600
     39 H39       -11.2008   -3.7704   58.4653 H       1  ZINC001456096501    0.0900
     40 H40       -10.6532   -3.0745   56.9212 H       1  ZINC001456096501    0.0700
     41 H41       -12.3160    0.9077   58.7506 H       1  ZINC001456096501    0.0600
     42 H42       -13.7443    1.4572   59.6593 H       1  ZINC001456096501    0.0600
     43 H43       -12.4249    0.6104   60.5021 H       1  ZINC001456096501    0.0600
     44 H44       -14.8554   -1.5650   57.7379 H       1  ZINC001456096501    0.0700
     45 H45       -15.3095    0.1110   58.1290 H       1  ZINC001456096501    0.0700
     46 H46       -13.8259   -0.2157   57.2016 H       1  ZINC001456096501    0.0600
     47 H47       -14.0608   -1.0581   61.3867 H       1  ZINC001456096501    0.0600
     48 H48       -15.3802   -0.2112   60.5440 H       1  ZINC001456096501    0.0700
     49 H49       -15.1173   -1.9495   60.2653 H       1  ZINC001456096501    0.0800
     50 H50       -11.8091   -0.3054   54.4573 H       1  ZINC001456096501    0.0800
     51 H51       -10.8037   -1.7865   54.4383 H       1  ZINC001456096501    0.0700
@<TRIPOS>BOND
     1     1     2    1
     2     1    26    1
     3     1    27    1
     4     1    28    1
     5     2     3    1
     6     3     8   ar
     7     3     4   ar
     8     4     5   ar
     9     5     6   ar
    10     5    29    1
    11     6     7   ar
    12     6    30    1
    13     7     8   ar
    14     7    31    1
    15     8     9    1
    16     9    10    2
    17     9    11   am
    18    11    25    1
    19    11    12    1
    20    12    13    1
    21    12    32    1
    22    12    33    1
    23    13    14    1
    24    13    34    1
    25    13    35    1
    26    14    15    1
    27    14    16    1
    28    14    25    1
    29    16    17    1
    30    16    36    1
    31    16    37    1
    32    17    18    1
    33    17    19   am
    34    18    38    1
    35    18    39    1
    36    18    40    1
    37    19    20    2
    38    19    21    1
    39    21    22    1
    40    21    23    1
    41    21    24    1
    42    22    41    1
    43    22    42    1
    44    22    43    1
    45    23    44    1
    46    23    45    1
    47    23    46    1
    48    24    47    1
    49    24    48    1
    50    24    49    1
    51    25    50    1
    52    25    51    1
@<TRIPOS>SUBSTRUCTURE
     1 ZINC001456096501        1 TEMP              0 ****  ****    0 ROOT


##########                                Name:    ZINC000277311370
##########                DOCK_Rotatable_Bonds:                   5
##########                         Heavy_Atoms:                  17
##########                    Molecular_Weight:             361.036
##########                DOCK_Rotatable_Bonds:                   5
##########                       Formal_Charge:        -7.45058e-08
##########                     HBond_Acceptors:                   4
##########                        HBond_Donors:                   1
##########                         Heavy_Atoms:                  17
##########                          Grid_Score:          -23.504370
##########                     Grid_vdw_energy:          -23.715378
##########                      Grid_es_energy:            0.211007
##########           Internal_energy_repulsive:           15.854838

@<TRIPOS>MOLECULE
ZINC000277311370
 28 28 1 0 0
SMALL
USER_CHARGES


@<TRIPOS>ATOM
      1 C1        -10.0596   -2.8166   58.1474 C.3     1  ZINC000277311370   -0.1500
      2 C2        -10.2519   -1.6868   59.1613 C.3     1  ZINC000277311370   -0.1000
      3 C3        -11.2375   -2.1343   60.2426 C.3     1  ZINC000277311370   -0.1600
      4 C4         -8.9070   -1.3463   59.8064 C.3     1  ZINC000277311370    0.2500
      5 H5         -8.4230   -2.2631   60.1431 H       1  ZINC000277311370    0.1400
      6 C6         -9.1265   -0.4559   60.9578 C.1     1  ZINC000277311370    0.1900
      7 N7         -9.2959    0.2312   61.8464 N.1     1  ZINC000277311370   -0.4100
      8 N8         -8.0512   -0.6742   58.8255 N.am    1  ZINC000277311370   -0.7000
      9 C9         -8.3497    0.5739   58.4136 C.2     1  ZINC000277311370    0.5700
     10 O10        -9.3280    1.1424   58.8573 O.2     1  ZINC000277311370   -0.4900
     11 C11        -7.4857    1.2527   57.4207 C.ar    1  ZINC000277311370    0.1100
     12 N12        -6.4613    1.9893   57.8338 N.ar    1  ZINC000277311370   -0.4300
     13 C13        -5.6693    2.6080   56.9845 C.ar    1  ZINC000277311370    0.1300
     14 Br14       -4.2272    3.6420   57.6381 Br      1  ZINC000277311370    0.0200
     15 C15        -5.8775    2.5121   55.6164 C.ar    1  ZINC000277311370   -0.1100
     16 C16        -6.9351    1.7536   55.1419 C.ar    1  ZINC000277311370   -0.0400
     17 C17        -7.7510    1.1081   56.0599 C.ar    1  ZINC000277311370   -0.0900
     18 Br18       -9.2105    0.0582   55.4739 Br      1  ZINC000277311370    0.0300
     19 H19       -11.0177   -3.0593   57.6878 H       1  ZINC000277311370    0.0700
     20 H20        -9.3574   -2.4978   57.3772 H       1  ZINC000277311370    0.0700
     21 H21        -9.6667   -3.6974   58.6552 H       1  ZINC000277311370    0.0600
     22 H22       -10.6448   -0.8060   58.6535 H       1  ZINC000277311370    0.1000
     23 H23       -10.8446   -3.0151   60.7503 H       1  ZINC000277311370    0.0600
     24 H24       -11.3744   -1.3295   60.9649 H       1  ZINC000277311370    0.0600
     25 H25       -12.1956   -2.3770   59.7830 H       1  ZINC000277311370    0.0700
     26 H26        -7.2697   -1.1275   58.4723 H       1  ZINC000277311370    0.4200
     27 H27        -5.2217    3.0240   54.9279 H       1  ZINC000277311370    0.1600
     28 H28        -7.1179    1.6634   54.0813 H       1  ZINC000277311370    0.1700
@<TRIPOS>BOND
     1     1     2    1
     2     1    19    1
     3     1    20    1
     4     1    21    1
     5     2     3    1
     6     2     4    1
     7     2    22    1
     8     3    23    1
     9     3    24    1
    10     3    25    1
    11     4     5    1
    12     4     6    1
    13     4     8    1
    14     6     7    3
    15     8     9   am
    16     8    26    1
    17     9    10    2
    18     9    11    1
    19    11    17   ar
    20    11    12   ar
    21    12    13   ar
    22    13    14    1
    23    13    15   ar
    24    15    16   ar
    25    15    27    1
    26    16    17   ar
    27    16    28    1
    28    17    18    1
@<TRIPOS>SUBSTRUCTURE
     1 ZINC000277311370        1 TEMP              0 ****  ****    0 ROOT


##########                                Name:    ZINC000966038509
##########                DOCK_Rotatable_Bonds:                   5
##########                         Heavy_Atoms:                  25
##########                    Molecular_Weight:             346.445
##########                DOCK_Rotatable_Bonds:                   5
##########                       Formal_Charge:           0.0299998
##########                     HBond_Acceptors:                   5
##########                        HBond_Donors:                   1
##########                         Heavy_Atoms:                  25
##########                          Grid_Score:          -23.496313
##########                     Grid_vdw_energy:          -23.414379
##########                      Grid_es_energy:           -0.081933
##########           Internal_energy_repulsive:           22.139133

@<TRIPOS>MOLECULE
ZINC000966038509
 52 54 1 0 0
SMALL
USER_CHARGES


@<TRIPOS>ATOM
      1 C1         -5.8904    4.7439   54.6217 C.3     1  ZINC000966038509   -0.1200
      2 C2         -5.9288    3.4744   53.8105 C.ar    1  ZINC000966038509   -0.0100
      3 C3         -4.9267    3.2040   52.9037 C.ar    1  ZINC000966038509   -0.1600
      4 C4         -4.9611    2.0366   52.1562 C.ar    1  ZINC000966038509    0.1300
      5 F5         -3.9765    1.7766   51.2684 F       1  ZINC000966038509   -0.1300
      6 C6         -6.0020    1.1349   52.3171 C.ar    1  ZINC000966038509   -0.1600
      7 C7         -7.0093    1.3955   53.2212 C.ar    1  ZINC000966038509   -0.0100
      8 C8         -8.1403    0.4147   53.3945 C.3     1  ZINC000966038509   -0.1200
      9 C9         -6.9768    2.5672   53.9803 C.ar    1  ZINC000966038509   -0.1500
     10 C10        -8.0536    2.8517   54.9508 C.2     1  ZINC000966038509    0.5700
     11 O11        -8.7494    3.8393   54.8145 O.2     1  ZINC000966038509   -0.5200
     12 N12        -8.2647    2.0165   55.9874 N.am    1  ZINC000966038509   -0.7100
     13 C13        -9.3337    2.2978   56.9487 C.3     1  ZINC000966038509    0.1300
     14 H14        -9.8732    3.2047   56.6757 H       1  ZINC000966038509    0.1200
     15 C15       -10.2997    1.0932   57.0732 C.3     1  ZINC000966038509    0.0900
     16 N16        -9.6221    0.1593   57.9909 N.am    1  ZINC000966038509   -0.6200
     17 C17        -9.8265   -1.1716   58.0492 C.2     1  ZINC000966038509    0.5400
     18 O18        -9.2098   -1.8455   58.8469 O.2     1  ZINC000966038509   -0.5300
     19 C19       -10.8215   -1.8223   57.1230 C.3     1  ZINC000966038509   -0.1100
     20 C20       -10.8195   -3.3589   57.3183 C.3     1  ZINC000966038509   -0.1100
     21 C21       -12.2219   -3.7704   56.8058 C.3     1  ZINC000966038509   -0.1200
     22 C22       -13.1488   -2.6350   57.2872 C.3     1  ZINC000966038509   -0.1200
     23 C23       -12.2584   -1.3963   57.4889 C.3     1  ZINC000966038509   -0.1100
     24 C24        -8.6861    0.9202   58.8314 C.3     1  ZINC000966038509    0.1000
     25 C25        -8.7718    2.3980   58.3916 C.3     1  ZINC000966038509   -0.1100
     26 H26        -9.4555    2.9526   59.0343 H       1  ZINC000966038509    0.1000
     27 C27        -7.3852    3.0447   58.3938 C.3     1  ZINC000966038509   -0.1400
     28 H28        -5.3443    4.5666   55.5483 H       1  ZINC000966038509    0.0800
     29 H29        -5.3911    5.5258   54.0495 H       1  ZINC000966038509    0.0800
     30 H30        -6.9082    5.0574   54.8541 H       1  ZINC000966038509    0.0700
     31 H31        -4.1134    3.9028   52.7747 H       1  ZINC000966038509    0.1400
     32 H32        -6.0238    0.2269   51.7327 H       1  ZINC000966038509    0.1400
     33 H33        -7.8804   -0.3064   54.1694 H       1  ZINC000966038509    0.0800
     34 H34        -9.0442    0.9502   53.6850 H       1  ZINC000966038509    0.0700
     35 H35        -8.3145   -0.1088   52.4545 H       1  ZINC000966038509    0.0800
     36 H36        -7.7087    1.2293   56.0968 H       1  ZINC000966038509    0.4000
     37 H37       -11.2531    1.4134   57.4934 H       1  ZINC000966038509    0.0800
     38 H38       -10.4508    0.6261   56.1000 H       1  ZINC000966038509    0.0800
     39 H39       -10.6001   -1.5671   56.0867 H       1  ZINC000966038509    0.0900
     40 H40       -10.0372   -3.8235   56.7180 H       1  ZINC000966038509    0.0700
     41 H41       -10.7026   -3.6143   58.3715 H       1  ZINC000966038509    0.0700
     42 H42       -12.2277   -3.8319   55.7176 H       1  ZINC000966038509    0.0700
     43 H43       -12.5244   -4.7214   57.2442 H       1  ZINC000966038509    0.0700
     44 H44       -13.9095   -2.4294   56.5342 H       1  ZINC000966038509    0.0700
     45 H45       -13.6211   -2.9127   58.2295 H       1  ZINC000966038509    0.0700
     46 H46       -12.2985   -1.0730   58.5291 H       1  ZINC000966038509    0.0800
     47 H47       -12.5869   -0.5897   56.8337 H       1  ZINC000966038509    0.0700
     48 H48        -8.9705    0.8284   59.8796 H       1  ZINC000966038509    0.0800
     49 H49        -7.6717    0.5486   58.6864 H       1  ZINC000966038509    0.0700
     50 H50        -6.7262    2.4935   57.7229 H       1  ZINC000966038509    0.0600
     51 H51        -7.4657    4.0780   58.0560 H       1  ZINC000966038509    0.0700
     52 H52        -6.9759    3.0234   59.4037 H       1  ZINC000966038509    0.0700
@<TRIPOS>BOND
     1     1     2    1
     2     1    28    1
     3     1    29    1
     4     1    30    1
     5     2     9   ar
     6     2     3   ar
     7     3     4   ar
     8     3    31    1
     9     4     5    1
    10     4     6   ar
    11     6     7   ar
    12     6    32    1
    13     7     8    1
    14     7     9   ar
    15     8    33    1
    16     8    34    1
    17     8    35    1
    18     9    10    1
    19    10    11    2
    20    10    12   am
    21    12    13    1
    22    12    36    1
    23    13    14    1
    24    13    25    1
    25    13    15    1
    26    15    16    1
    27    15    37    1
    28    15    38    1
    29    16    17   am
    30    16    24    1
    31    17    18    2
    32    17    19    1
    33    19    23    1
    34    19    20    1
    35    19    39    1
    36    20    21    1
    37    20    40    1
    38    20    41    1
    39    21    22    1
    40    21    42    1
    41    21    43    1
    42    22    23    1
    43    22    44    1
    44    22    45    1
    45    23    46    1
    46    23    47    1
    47    24    25    1
    48    24    48    1
    49    24    49    1
    50    25    26    1
    51    25    27    1
    52    27    50    1
    53    27    51    1
    54    27    52    1
@<TRIPOS>SUBSTRUCTURE
     1 ZINC000966038509        1 TEMP              0 ****  ****    0 ROOT


##########                                Name:    ZINC001010141213
##########                DOCK_Rotatable_Bonds:                   4
##########                         Heavy_Atoms:                  24
##########                    Molecular_Weight:             330.346
##########                DOCK_Rotatable_Bonds:                   4
##########                       Formal_Charge:          -0.0100003
##########                     HBond_Acceptors:                   9
##########                        HBond_Donors:                   1
##########                         Heavy_Atoms:                  24
##########                          Grid_Score:          -23.435677
##########                     Grid_vdw_energy:          -22.716038
##########                      Grid_es_energy:           -0.719639
##########           Internal_energy_repulsive:           19.634558

@<TRIPOS>MOLECULE
ZINC001010141213
 42 44 1 0 0
SMALL
USER_CHARGES


@<TRIPOS>ATOM
      1 C1        -10.1904   -0.0680   57.6213 C.3     1  ZINC001010141213   -0.0800
      2 C2        -10.0091   -0.8075   56.3207 C.2     1  ZINC001010141213   -0.1500
      3 C3         -9.9697   -0.2675   55.0470 C.2     1  ZINC001010141213   -0.0400
      4 C4        -10.0974    1.1533   54.6856 C.2     1  ZINC001010141213    0.6000
      5 O5        -11.1162    1.5576   54.1584 O.2     1  ZINC001010141213   -0.5100
      6 N6         -9.0854    2.0067   54.9389 N.am    1  ZINC001010141213   -0.6100
      7 C7         -7.8463    1.5311   55.5699 C.3     1  ZINC001010141213    0.0900
      8 C8         -6.6620    1.9129   54.6732 C.3     1  ZINC001010141213    0.0700
      9 N9         -6.7777    3.3355   54.3230 N.am    1  ZINC001010141213   -0.6000
     10 C10        -5.7653    4.1886   54.5754 C.2     1  ZINC001010141213    0.5900
     11 O11        -5.8727    5.3632   54.2812 O.2     1  ZINC001010141213   -0.5200
     12 C12        -4.5239    3.6958   55.2103 C.2     1  ZINC001010141213    0.0300
     13 N13        -4.5647    3.1885   56.4217 N.2     1  ZINC001010141213   -0.1800
     14 N14        -3.5155    2.7476   57.0158 N.am    1  ZINC001010141213   -0.4400
     15 C15        -2.3035    2.7783   56.4310 C.2     1  ZINC001010141213    0.4800
     16 O16        -1.3255    2.3511   57.0218 O.2     1  ZINC001010141213   -0.5100
     17 C17        -2.1718    3.3082   55.1281 C.2     1  ZINC001010141213   -0.1800
     18 C18        -3.2963    3.7670   54.5086 C.2     1  ZINC001010141213   -0.0400
     19 C19        -8.0169    3.8111   53.6920 C.3     1  ZINC001010141213    0.1000
     20 C20        -9.1990    3.4282   54.5835 C.3     1  ZINC001010141213    0.1000
     21 N21        -9.7885   -1.3177   54.1925 N.pl3   1  ZINC001010141213   -0.2700
     22 C22        -9.6867   -1.2124   52.7349 C.3     1  ZINC001010141213    0.0900
     23 N23        -9.7204   -2.4117   54.8621 N.2     1  ZINC001010141213   -0.2800
     24 C24        -9.8391   -2.1826   56.1451 C.2     1  ZINC001010141213    0.0100
     25 H25        -9.2158    0.2261   58.0109 H       1  ZINC001010141213    0.0700
     26 H26       -10.7974    0.8213   57.4521 H       1  ZINC001010141213    0.0600
     27 H27       -10.6890   -0.7166   58.3415 H       1  ZINC001010141213    0.0700
     28 H28        -7.7307    1.9990   56.5475 H       1  ZINC001010141213    0.0800
     29 H29        -7.8855    0.4477   55.6823 H       1  ZINC001010141213    0.1000
     30 H30        -5.7279    1.7428   55.2087 H       1  ZINC001010141213    0.1400
     31 H31        -6.6811    1.3099   53.7654 H       1  ZINC001010141213    0.0800
     32 H32        -3.5983    2.3825   57.9107 H       1  ZINC001010141213    0.4500
     33 H33        -1.2110    3.3446   54.6363 H       1  ZINC001010141213    0.1700
     34 H34        -3.2504    4.1814   53.5124 H       1  ZINC001010141213    0.1700
     35 H35        -7.9777    4.8946   53.5794 H       1  ZINC001010141213    0.1100
     36 H36        -8.1325    3.3432   52.7143 H       1  ZINC001010141213    0.0800
     37 H37       -10.1323    3.5988   54.0468 H       1  ZINC001010141213    0.1100
     38 H38        -9.1815    4.0295   55.4924 H       1  ZINC001010141213    0.0800
     39 H39        -8.6367   -1.1626   52.4465 H       1  ZINC001010141213    0.0900
     40 H40       -10.1490   -2.0855   52.2743 H       1  ZINC001010141213    0.1000
     41 H41       -10.1988   -0.3107   52.3991 H       1  ZINC001010141213    0.0900
     42 H42        -9.8167   -2.9257   56.9284 H       1  ZINC001010141213    0.1900
@<TRIPOS>BOND
     1     1     2    1
     2     1    25    1
     3     1    26    1
     4     1    27    1
     5     2    24    1
     6     2     3    2
     7     3     4    1
     8     3    21    1
     9     4     5    2
    10     4     6   am
    11     6    20    1
    12     6     7    1
    13     7     8    1
    14     7    28    1
    15     7    29    1
    16     8     9    1
    17     8    30    1
    18     8    31    1
    19     9    10   am
    20     9    19    1
    21    10    11    2
    22    10    12    1
    23    12    18    1
    24    12    13    2
    25    13    14    1
    26    14    15   am
    27    14    32    1
    28    15    16    2
    29    15    17    1
    30    17    18    2
    31    17    33    1
    32    18    34    1
    33    19    20    1
    34    19    35    1
    35    19    36    1
    36    20    37    1
    37    20    38    1
    38    21    22    1
    39    21    23    1
    40    22    39    1
    41    22    40    1
    42    22    41    1
    43    23    24    2
    44    24    42    1
@<TRIPOS>SUBSTRUCTURE
     1 ZINC001010141213        1 TEMP              0 ****  ****    0 ROOT


##########                                Name:    ZINC000879023512
##########                DOCK_Rotatable_Bonds:                   4
##########                         Heavy_Atoms:                  20
##########                    Molecular_Weight:             346.156
##########                DOCK_Rotatable_Bonds:                   4
##########                       Formal_Charge:        -5.96046e-08
##########                     HBond_Acceptors:                   7
##########                        HBond_Donors:                   1
##########                         Heavy_Atoms:                  20
##########                          Grid_Score:          -23.430447
##########                     Grid_vdw_energy:          -21.850306
##########                      Grid_es_energy:           -1.580141
##########           Internal_energy_repulsive:            3.040376

@<TRIPOS>MOLECULE
ZINC000879023512
 33 34 1 0 0
SMALL
USER_CHARGES


@<TRIPOS>ATOM
      1 O1         -8.0253   -0.5271   58.6689 O.2     1  ZINC000879023512   -0.5600
      2 C2         -8.4876    0.5374   59.0316 C.2     1  ZINC000879023512    0.7200
      3 N3         -8.7018    1.5199   58.1341 N.am    1  ZINC000879023512   -0.6800
      4 C4         -8.3868    1.3166   56.7854 C.ar    1  ZINC000879023512    0.1800
      5 C5         -7.3728    2.0543   56.1893 C.ar    1  ZINC000879023512   -0.0900
      6 C6         -7.0640    1.8518   54.8582 C.ar    1  ZINC000879023512   -0.0700
      7 C7         -7.7643    0.9153   54.1191 C.ar    1  ZINC000879023512   -0.0700
      8 Br8        -7.3388    0.6408   52.2972 Br      1  ZINC000879023512    0.0200
      9 C9         -8.7754    0.1787   54.7108 C.ar    1  ZINC000879023512    0.0000
     10 N10        -9.5226   -0.8225   53.9169 N.pl3   1  ZINC000879023512    0.0200
     11 O11       -10.4127   -1.4711   54.4371 O.2     1  ZINC000879023512   -0.1500
     12 O12        -9.2475   -0.9976   52.7434 O.2     1  ZINC000879023512   -0.1300
     13 C13        -9.0841    0.3727   56.0427 C.ar    1  ZINC000879023512   -0.0500
     14 N14        -8.7908    0.7331   60.3301 N.am    1  ZINC000879023512   -0.6300
     15 C15        -8.6031   -0.2460   61.4108 C.3     1  ZINC000879023512    0.0900
     16 C16        -9.1115    0.4064   62.7136 C.3     1  ZINC000879023512   -0.1200
     17 C17       -10.0788    1.5045   62.1978 C.3     1  ZINC000879023512   -0.1400
     18 H18       -11.0608    1.0871   61.9754 H       1  ZINC000879023512    0.1000
     19 C19       -10.1892    2.6537   63.2017 C.3     1  ZINC000879023512    0.0700
     20 F20       -11.1093    3.5970   62.7316 F       1  ZINC000879023512   -0.2100
     21 C21        -9.3595    1.9665   60.9033 C.3     1  ZINC000879023512    0.1300
     22 H22        -9.0742    2.3677   58.4227 H       1  ZINC000879023512    0.4200
     23 H23        -6.8263    2.7861   56.7657 H       1  ZINC000879023512    0.1600
     24 H24        -6.2753    2.4253   54.3940 H       1  ZINC000879023512    0.1600
     25 H25        -9.8730   -0.2027   56.5040 H       1  ZINC000879023512    0.1800
     26 H26        -9.1783   -1.1472   61.1985 H       1  ZINC000879023512    0.0700
     27 H27        -7.5459   -0.4929   61.5079 H       1  ZINC000879023512    0.0700
     28 H28        -9.6448   -0.3204   63.3263 H       1  ZINC000879023512    0.0900
     29 H29        -8.2862    0.8501   63.2703 H       1  ZINC000879023512    0.0900
     30 H30       -10.5262    2.2654   64.1628 H       1  ZINC000879023512    0.0800
     31 H31        -9.2142    3.1259   63.3223 H       1  ZINC000879023512    0.0800
     32 H32        -8.5702    2.6794   61.1417 H       1  ZINC000879023512    0.0800
     33 H33       -10.0744    2.4087   60.2093 H       1  ZINC000879023512    0.0900
@<TRIPOS>BOND
     1     1     2    2
     2     2     3   am
     3     2    14   am
     4     3     4    1
     5     3    22    1
     6     4    13   ar
     7     4     5   ar
     8     5     6   ar
     9     5    23    1
    10     6     7   ar
    11     6    24    1
    12     7     8    1
    13     7     9   ar
    14     9    10    1
    15     9    13   ar
    16    10    11    2
    17    10    12    2
    18    13    25    1
    19    14    21    1
    20    14    15    1
    21    15    16    1
    22    15    26    1
    23    15    27    1
    24    16    17    1
    25    16    28    1
    26    16    29    1
    27    17    18    1
    28    17    19    1
    29    17    21    1
    30    19    20    1
    31    19    30    1
    32    19    31    1
    33    21    32    1
    34    21    33    1
@<TRIPOS>SUBSTRUCTURE
     1 ZINC000879023512        1 TEMP              0 ****  ****    0 ROOT


##########                                Name:    ZINC000176150038
##########                DOCK_Rotatable_Bonds:                   4
##########                         Heavy_Atoms:                  23
##########                    Molecular_Weight:             333.712
##########                DOCK_Rotatable_Bonds:                   4
##########                       Formal_Charge:        -2.23517e-07
##########                     HBond_Acceptors:                  10
##########                        HBond_Donors:                   1
##########                         Heavy_Atoms:                  23
##########                          Grid_Score:          -23.362921
##########                     Grid_vdw_energy:          -23.741295
##########                      Grid_es_energy:            0.378375
##########           Internal_energy_repulsive:            7.168843

@<TRIPOS>MOLECULE
ZINC000176150038
 32 34 1 0 0
SMALL
USER_CHARGES


@<TRIPOS>ATOM
      1 C1         -8.7834    3.7949   52.7242 C.3     1  ZINC000176150038   -0.0900
      2 C2         -7.6408    2.9551   52.2139 C.2     1  ZINC000176150038    0.2600
      3 N3         -7.3099    2.7751   50.9619 N.2     1  ZINC000176150038   -0.3300
      4 N4         -6.2874    2.0035   50.8704 N.2     1  ZINC000176150038   -0.0300
      5 N5         -5.8973    1.6399   52.0444 N.2     1  ZINC000176150038   -0.0700
      6 N6         -6.7651    2.2531   52.9652 N.pl3   1  ZINC000176150038   -0.3300
      7 C7         -6.7332    2.1512   54.3642 C.ar    1  ZINC000176150038    0.1400
      8 C8         -5.8809    2.9630   55.1001 C.ar    1  ZINC000176150038   -0.1000
      9 C9         -5.8483    2.8644   56.4784 C.ar    1  ZINC000176150038   -0.1100
     10 C10        -6.6644    1.9570   57.1286 C.ar    1  ZINC000176150038    0.1000
     11 F11        -6.6308    1.8630   58.4759 F       1  ZINC000176150038   -0.1200
     12 C12        -7.5205    1.1409   56.3955 C.ar    1  ZINC000176150038    0.1300
     13 N13        -8.3466    0.2223   57.0527 N.am    1  ZINC000176150038   -0.6500
     14 C14        -9.5949    0.5780   57.4152 C.2     1  ZINC000176150038    0.5700
     15 O15       -10.0032    1.6962   57.1713 O.2     1  ZINC000176150038   -0.4800
     16 C16       -10.4707   -0.3956   58.1119 C.ar    1  ZINC000176150038    0.1400
     17 N17       -11.7330   -0.5677   57.7259 N.ar    1  ZINC000176150038   -0.4800
     18 C18       -12.5127   -1.4304   58.3408 C.ar    1  ZINC000176150038    0.3000
     19 N19       -12.0865   -2.1567   59.3559 N.ar    1  ZINC000176150038   -0.4800
     20 C20       -10.8467   -2.0460   59.8007 C.ar    1  ZINC000176150038    0.1700
     21 C21        -9.9831   -1.1518   59.1805 C.ar    1  ZINC000176150038   -0.1000
     22 Cl22       -8.3454   -0.9701   59.7269 Cl      1  ZINC000176150038    0.0100
     23 C23        -7.5575    1.2430   55.0127 C.ar    1  ZINC000176150038   -0.0800
     24 H24        -8.4386    4.8158   52.8888 H       1  ZINC000176150038    0.1100
     25 H25        -9.5888    3.7974   51.9897 H       1  ZINC000176150038    0.1100
     26 H26        -9.1490    3.3790   53.6630 H       1  ZINC000176150038    0.0900
     27 H27        -5.2421    3.6724   54.5950 H       1  ZINC000176150038    0.1500
     28 H28        -5.1840    3.4970   57.0486 H       1  ZINC000176150038    0.1600
     29 H29        -8.0207   -0.6703   57.2473 H       1  ZINC000176150038    0.4300
     30 H30       -13.5324   -1.5473   58.0046 H       1  ZINC000176150038    0.2200
     31 H31       -10.5084   -2.6457   60.6328 H       1  ZINC000176150038    0.1900
     32 H32        -8.2211    0.6109   54.4413 H       1  ZINC000176150038    0.1700
@<TRIPOS>BOND
     1     1     2    1
     2     1    24    1
     3     1    25    1
     4     1    26    1
     5     2     6    1
     6     2     3    2
     7     3     4    1
     8     4     5    2
     9     5     6    1
    10     6     7    1
    11     7    23   ar
    12     7     8   ar
    13     8     9   ar
    14     8    27    1
    15     9    10   ar
    16     9    28    1
    17    10    11    1
    18    10    12   ar
    19    12    13    1
    20    12    23   ar
    21    13    14   am
    22    13    29    1
    23    14    15    2
    24    14    16    1
    25    16    21   ar
    26    16    17   ar
    27    17    18   ar
    28    18    19   ar
    29    18    30    1
    30    19    20   ar
    31    20    21   ar
    32    20    31    1
    33    21    22    1
    34    23    32    1
@<TRIPOS>SUBSTRUCTURE
     1 ZINC000176150038        1 TEMP              0 ****  ****    0 ROOT


##########                                Name:    ZINC000455156110
##########                DOCK_Rotatable_Bonds:                   4
##########                         Heavy_Atoms:                  27
##########                    Molecular_Weight:             370.424
##########                DOCK_Rotatable_Bonds:                   4
##########                       Formal_Charge:           0.0100002
##########                     HBond_Acceptors:                   6
##########                        HBond_Donors:                   1
##########                         Heavy_Atoms:                  27
##########                          Grid_Score:          -23.295795
##########                     Grid_vdw_energy:          -22.945765
##########                      Grid_es_energy:           -0.350030
##########           Internal_energy_repulsive:           45.419903

@<TRIPOS>MOLECULE
ZINC000455156110
 50 53 1 0 0
SMALL
USER_CHARGES


@<TRIPOS>ATOM
      1 C1         -4.8442    2.2153   51.5880 C.3     1  ZINC000455156110    0.0300
      2 O2         -5.7289    1.1134   51.3755 O.3     1  ZINC000455156110   -0.3100
      3 C3         -6.7400    0.9515   52.2710 C.ar    1  ZINC000455156110    0.0900
      4 C4         -7.6254   -0.1057   52.1326 C.ar    1  ZINC000455156110   -0.1600
      5 C5         -8.6527   -0.2711   53.0419 C.ar    1  ZINC000455156110   -0.0800
      6 C6         -9.6151   -1.4208   52.8900 C.3     1  ZINC000455156110   -0.1100
      7 C7         -8.7982    0.6209   54.0952 C.ar    1  ZINC000455156110    0.1500
      8 N8         -9.8396    0.4522   55.0176 N.am    1  ZINC000455156110   -0.6700
      9 C9         -9.5675    0.3826   56.3358 C.2     1  ZINC000455156110    0.7200
     10 O10        -8.4185    0.4662   56.7247 O.2     1  ZINC000455156110   -0.5500
     11 N11       -10.5691    0.2204   57.2229 N.am    1  ZINC000455156110   -0.5600
     12 C12       -11.9890    0.1010   56.8759 C.3     1  ZINC000455156110    0.1000
     13 C13       -12.7133   -0.0655   58.2172 C.3     1  ZINC000455156110   -0.0200
     14 C14       -13.6991    1.0805   58.4324 C.3     1  ZINC000455156110   -0.1400
     15 C15       -14.8158    0.9862   57.3880 C.3     1  ZINC000455156110    0.0600
     16 O16       -15.4451   -0.2935   57.4813 O.3     1  ZINC000455156110   -0.3800
     17 C17       -14.5726   -1.3956   57.2233 C.3     1  ZINC000455156110    0.0600
     18 C18       -13.4455   -1.4047   58.2607 C.3     1  ZINC000455156110   -0.1400
     19 C19       -11.6225   -0.0265   59.2578 C.ar    1  ZINC000455156110   -0.1300
     20 C20       -11.6726   -0.1258   60.6349 C.ar    1  ZINC000455156110   -0.0700
     21 C21       -10.5096   -0.0600   61.3797 C.ar    1  ZINC000455156110   -0.1400
     22 C22        -9.2934    0.1058   60.7433 C.ar    1  ZINC000455156110   -0.0900
     23 C23        -9.2380    0.2063   59.3693 C.ar    1  ZINC000455156110   -0.1300
     24 C24       -10.4065    0.1350   58.6098 C.ar    1  ZINC000455156110    0.1600
     25 C25        -7.9113    1.6802   54.2352 C.ar    1  ZINC000455156110   -0.1200
     26 C26        -6.8812    1.8426   53.3277 C.ar    1  ZINC000455156110    0.0900
     27 F27        -6.0174    2.8726   53.4631 F       1  ZINC000455156110   -0.1300
     28 H28        -4.0862    2.2290   50.8049 H       1  ZINC000455156110    0.1000
     29 H29        -5.4106    3.1462   51.5617 H       1  ZINC000455156110    0.0600
     30 H30        -4.3611    2.1113   52.5595 H       1  ZINC000455156110    0.0600
     31 H31        -7.5126   -0.8005   51.3134 H       1  ZINC000455156110    0.1400
     32 H32        -9.2374   -2.2855   53.4355 H       1  ZINC000455156110    0.0800
     33 H33       -10.5881   -1.1354   53.2901 H       1  ZINC000455156110    0.0600
     34 H34        -9.7162   -1.6730   51.8344 H       1  ZINC000455156110    0.0800
     35 H35       -10.7562    0.3856   54.7074 H       1  ZINC000455156110    0.4100
     36 H36       -12.3322    1.0031   56.3695 H       1  ZINC000455156110    0.0800
     37 H37       -12.1527   -0.7734   56.2461 H       1  ZINC000455156110    0.0900
     38 H38       -14.1282    1.0091   59.4319 H       1  ZINC000455156110    0.0800
     39 H39       -13.1797    2.0328   58.3254 H       1  ZINC000455156110    0.0800
     40 H40       -15.5527    1.7680   57.5719 H       1  ZINC000455156110    0.1000
     41 H41       -14.3929    1.1117   56.3913 H       1  ZINC000455156110    0.0500
     42 H42       -15.1345   -2.3273   57.2884 H       1  ZINC000455156110    0.1000
     43 H43       -14.1468   -1.2964   56.2247 H       1  ZINC000455156110    0.0500
     44 H44       -12.7468   -2.2095   58.0323 H       1  ZINC000455156110    0.0800
     45 H45       -13.8665   -1.5576   59.2544 H       1  ZINC000455156110    0.0800
     46 H46       -12.6231   -0.2548   61.1311 H       1  ZINC000455156110    0.1300
     47 H47       -10.5511   -0.1376   62.4560 H       1  ZINC000455156110    0.1300
     48 H48        -8.3843    0.1570   61.3241 H       1  ZINC000455156110    0.1300
     49 H49        -8.2849    0.3363   58.8781 H       1  ZINC000455156110    0.1400
     50 H50        -8.0239    2.3746   55.0545 H       1  ZINC000455156110    0.1700
@<TRIPOS>BOND
     1     1     2    1
     2     1    28    1
     3     1    29    1
     4     1    30    1
     5     2     3    1
     6     3    26   ar
     7     3     4   ar
     8     4     5   ar
     9     4    31    1
    10     5     6    1
    11     5     7   ar
    12     6    32    1
    13     6    33    1
    14     6    34    1
    15     7     8    1
    16     7    25   ar
    17     8     9   am
    18     8    35    1
    19     9    10    2
    20     9    11   am
    21    11    24    1
    22    11    12    1
    23    12    13    1
    24    12    36    1
    25    12    37    1
    26    13    18    1
    27    13    14    1
    28    13    19    1
    29    14    15    1
    30    14    38    1
    31    14    39    1
    32    15    16    1
    33    15    40    1
    34    15    41    1
    35    16    17    1
    36    17    18    1
    37    17    42    1
    38    17    43    1
    39    18    44    1
    40    18    45    1
    41    19    24   ar
    42    19    20   ar
    43    20    21   ar
    44    20    46    1
    45    21    22   ar
    46    21    47    1
    47    22    23   ar
    48    22    48    1
    49    23    24   ar
    50    23    49    1
    51    25    26   ar
    52    25    50    1
    53    26    27    1
@<TRIPOS>SUBSTRUCTURE
     1 ZINC000455156110        1 TEMP              0 ****  ****    0 ROOT


##########                                Name:    ZINC000163855860
##########                DOCK_Rotatable_Bonds:                   6
##########                         Heavy_Atoms:                  28
##########                    Molecular_Weight:             398.483
##########                DOCK_Rotatable_Bonds:                   6
##########                       Formal_Charge:          -0.0100004
##########                     HBond_Acceptors:                   7
##########                        HBond_Donors:                   1
##########                         Heavy_Atoms:                  28
##########                          Grid_Score:          -23.251448
##########                     Grid_vdw_energy:          -23.621229
##########                      Grid_es_energy:            0.369781
##########           Internal_energy_repulsive:           15.467538

@<TRIPOS>MOLECULE
ZINC000163855860
 50 53 1 0 0
SMALL
USER_CHARGES


@<TRIPOS>ATOM
      1 C1        -10.2152    2.2622   57.1246 C.3     1  ZINC000163855860   -0.1300
      2 C2         -8.7665    2.2916   56.7104 C.ar    1  ZINC000163855860   -0.0600
      3 C3         -8.4273    2.4912   55.3815 C.ar    1  ZINC000163855860    0.1400
      4 N4         -9.4307    2.6664   54.4218 N.am    1  ZINC000163855860   -0.6700
      5 C5        -10.1116    1.6005   53.9562 C.2     1  ZINC000163855860    0.5100
      6 O6         -9.8546    0.4894   54.3690 O.2     1  ZINC000163855860   -0.5100
      7 C7        -11.1921    1.7892   52.9229 C.3     1  ZINC000163855860   -0.1300
      8 C8        -12.2005    0.6430   53.0242 C.3     1  ZINC000163855860   -0.1100
      9 H9        -11.7043   -0.3222   52.9225 H       1  ZINC000163855860    0.1100
     10 C10       -12.9895    0.7196   54.3512 C.3     1  ZINC000163855860    0.0600
     11 O11       -14.3263    0.2491   54.0072 O.3     1  ZINC000163855860   -0.3500
     12 C12       -14.6048    0.5576   52.7326 C.2     1  ZINC000163855860    0.4800
     13 O13       -15.7154    0.6311   52.2624 O.2     1  ZINC000163855860   -0.4500
     14 C14       -13.3198    0.8001   51.9710 C.3     1  ZINC000163855860   -0.1800
     15 C15        -7.0903    2.5231   55.0028 C.ar    1  ZINC000163855860   -0.1100
     16 C16        -6.0956    2.3515   55.9468 C.ar    1  ZINC000163855860   -0.1100
     17 C17        -6.4231    2.1473   57.2721 C.ar    1  ZINC000163855860   -0.1000
     18 C18        -7.7627    2.1131   57.6624 C.ar    1  ZINC000163855860   -0.1100
     19 C19        -8.1164    1.8951   59.0814 C.2     1  ZINC000163855860    0.5700
     20 O20        -8.2210    2.8435   59.8344 O.2     1  ZINC000163855860   -0.5300
     21 N21        -8.3229    0.6447   59.5400 N.am    1  ZINC000163855860   -0.6100
     22 C22        -8.6755    0.4058   60.9477 C.3     1  ZINC000163855860    0.1200
     23 C23       -10.0948   -0.1813   60.9969 C.3     1  ZINC000163855860   -0.0600
     24 C24       -10.2154   -1.2706   59.9524 C.2     1  ZINC000163855860   -0.1700
     25 C25        -9.3875   -1.4320   58.9028 C.2     1  ZINC000163855860   -0.1300
     26 C26        -9.7225   -2.5050   58.0830 C.2     1  ZINC000163855860   -0.1200
     27 C27       -10.7908   -3.2025   58.4561 C.2     1  ZINC000163855860   -0.2100
     28 S28       -11.4621   -2.5114   59.9255 S.3     1  ZINC000163855860    0.1100
     29 C29        -8.1956   -0.5164   58.6480 C.3     1  ZINC000163855860    0.1700
     30 H30       -10.5643    1.2299   57.1522 H       1  ZINC000163855860    0.0700
     31 H31       -10.3193    2.7075   58.1140 H       1  ZINC000163855860    0.0900
     32 H32       -10.8098    2.8278   56.4071 H       1  ZINC000163855860    0.0700
     33 H33        -9.6364    3.5552   54.0917 H       1  ZINC000163855860    0.4100
     34 H34       -10.7465    1.7943   51.9281 H       1  ZINC000163855860    0.1100
     35 H35       -11.7007    2.7372   53.0980 H       1  ZINC000163855860    0.1100
     36 H36       -13.0288    1.7474   54.7120 H       1  ZINC000163855860    0.0800
     37 H37       -12.5382    0.0691   55.1004 H       1  ZINC000163855860    0.1200
     38 H38       -13.2025    0.0599   51.1795 H       1  ZINC000163855860    0.1200
     39 H39       -13.3100    1.8072   51.5542 H       1  ZINC000163855860    0.1200
     40 H40        -6.8279    2.6829   53.9674 H       1  ZINC000163855860    0.1500
     41 H41        -5.0585    2.3777   55.6467 H       1  ZINC000163855860    0.1300
     42 H42        -5.6429    2.0136   58.0067 H       1  ZINC000163855860    0.1300
     43 H43        -7.9699   -0.2993   61.3872 H       1  ZINC000163855860    0.0800
     44 H44        -8.6468    1.3469   61.4971 H       1  ZINC000163855860    0.1000
     45 H45       -10.8231    0.6031   60.7912 H       1  ZINC000163855860    0.0900
     46 H46       -10.2812   -0.6017   61.9852 H       1  ZINC000163855860    0.0900
     47 H47        -9.1519   -2.7548   57.2008 H       1  ZINC000163855860    0.1400
     48 H48       -11.1854   -4.0628   57.9359 H       1  ZINC000163855860    0.1700
     49 H49        -8.1992   -0.1861   57.6093 H       1  ZINC000163855860    0.1000
     50 H50        -7.2683   -1.0475   58.8632 H       1  ZINC000163855860    0.0900
@<TRIPOS>BOND
     1     1     2    1
     2     1    30    1
     3     1    31    1
     4     1    32    1
     5     2    18   ar
     6     2     3   ar
     7     3     4    1
     8     3    15   ar
     9     4     5   am
    10     4    33    1
    11     5     6    2
    12     5     7    1
    13     7     8    1
    14     7    34    1
    15     7    35    1
    16     8     9    1
    17     8    14    1
    18     8    10    1
    19    10    11    1
    20    10    36    1
    21    10    37    1
    22    11    12    1
    23    12    13    2
    24    12    14    1
    25    14    38    1
    26    14    39    1
    27    15    16   ar
    28    15    40    1
    29    16    17   ar
    30    16    41    1
    31    17    18   ar
    32    17    42    1
    33    18    19    1
    34    19    20    2
    35    19    21   am
    36    21    29    1
    37    21    22    1
    38    22    23    1
    39    22    43    1
    40    22    44    1
    41    23    24    1
    42    23    45    1
    43    23    46    1
    44    24    28    1
    45    24    25    2
    46    25    26    1
    47    25    29    1
    48    26    27    2
    49    26    47    1
    50    27    28    1
    51    27    48    1
    52    29    49    1
    53    29    50    1
@<TRIPOS>SUBSTRUCTURE
     1 ZINC000163855860        1 TEMP              0 ****  ****    0 ROOT


##########                                Name:    ZINC000055987960
##########                DOCK_Rotatable_Bonds:                   6
##########                         Heavy_Atoms:                  28
##########                    Molecular_Weight:             404.868
##########                DOCK_Rotatable_Bonds:                   6
##########                       Formal_Charge:          0.00999941
##########                     HBond_Acceptors:                   7
##########                        HBond_Donors:                   1
##########                         Heavy_Atoms:                  28
##########                          Grid_Score:          -23.178452
##########                     Grid_vdw_energy:          -22.472673
##########                      Grid_es_energy:           -0.705777
##########           Internal_energy_repulsive:           15.412146

@<TRIPOS>MOLECULE
ZINC000055987960
 50 52 1 0 0
SMALL
USER_CHARGES


@<TRIPOS>ATOM
      1 C1        -15.7933   -2.4628   57.4987 C.3     1  ZINC000055987960   -0.1800
      2 C2        -15.7976   -2.9109   58.9615 C.3     1  ZINC000055987960    0.0700
      3 H3        -16.4860   -3.7471   59.0840 H       1  ZINC000055987960    0.1200
      4 C4        -14.3852   -3.3468   59.3677 C.3     1  ZINC000055987960    0.0800
      5 N5        -13.5163   -2.1592   59.3721 N.am    1  ZINC000055987960   -0.6100
      6 C6        -12.3361   -2.1606   58.7215 C.2     1  ZINC000055987960    0.5700
      7 O7        -11.9752   -3.1532   58.1190 O.2     1  ZINC000055987960   -0.5300
      8 C8        -11.4815   -0.9574   58.7402 C.ar    1  ZINC000055987960   -0.1500
      9 C9        -11.4089   -0.1325   57.6145 C.ar    1  ZINC000055987960   -0.0700
     10 C10       -10.6111    0.9894   57.6355 C.ar    1  ZINC000055987960   -0.1500
     11 C11        -9.8777    1.3022   58.7757 C.ar    1  ZINC000055987960    0.1700
     12 N12        -9.0711    2.4394   58.7937 N.am    1  ZINC000055987960   -0.6700
     13 C13        -8.1801    2.6494   57.8045 C.2     1  ZINC000055987960    0.5200
     14 O14        -8.0800    1.8491   56.8987 O.2     1  ZINC000055987960   -0.5000
     15 C15        -7.3083    3.8784   57.8238 C.3     1  ZINC000055987960   -0.1100
     16 C16        -6.2972    3.7947   56.7096 C.ar    1  ZINC000055987960   -0.1000
     17 C17        -5.0100    3.3598   56.9737 C.ar    1  ZINC000055987960    0.1300
     18 F18        -4.6593    3.0102   58.2307 F       1  ZINC000055987960   -0.1300
     19 C19        -4.0819    3.2829   55.9487 C.ar    1  ZINC000055987960   -0.1500
     20 C20        -4.4410    3.6403   54.6632 C.ar    1  ZINC000055987960   -0.0700
     21 C21        -5.7267    4.0747   54.3992 C.ar    1  ZINC000055987960   -0.1200
     22 C22        -6.6566    4.1471   55.4210 C.ar    1  ZINC000055987960    0.0000
     23 Cl23       -8.2710    4.6921   55.0884 Cl      1  ZINC000055987960   -0.0500
     24 C24        -9.9478    0.4830   59.8982 C.ar    1  ZINC000055987960   -0.1200
     25 C25       -10.7476   -0.6374   59.8857 C.ar    1  ZINC000055987960   -0.0500
     26 C26       -13.9743   -0.9699   60.1077 C.3     1  ZINC000055987960    0.0600
     27 C27       -15.4068   -0.6498   59.6655 C.3     1  ZINC000055987960    0.0700
     28 H28       -15.4023   -0.3224   58.6258 H       1  ZINC000055987960    0.0700
     29 C29       -15.9782    0.4612   60.5488 C.3     1  ZINC000055987960   -0.1500
     30 O30       -16.2133   -1.8245   59.7925 O.3     1  ZINC000055987960   -0.3700
     31 H31       -15.1047   -1.6266   57.3768 H       1  ZINC000055987960    0.0600
     32 H32       -15.4746   -3.2911   56.8658 H       1  ZINC000055987960    0.0700
     33 H33       -16.7974   -2.1513   57.2111 H       1  ZINC000055987960    0.0700
     34 H34       -14.4094   -3.7878   60.3643 H       1  ZINC000055987960    0.0800
     35 H35       -14.0061   -4.0763   58.6521 H       1  ZINC000055987960    0.1000
     36 H36       -11.9776   -0.3748   56.7290 H       1  ZINC000055987960    0.1400
     37 H37       -10.5541    1.6271   56.7657 H       1  ZINC000055987960    0.1300
     38 H38        -9.1511    3.0794   59.5182 H       1  ZINC000055987960    0.4200
     39 H39        -7.9274    4.7651   57.6869 H       1  ZINC000055987960    0.1200
     40 H40        -6.7902    3.9413   58.7807 H       1  ZINC000055987960    0.1200
     41 H41        -3.0772    2.9440   56.1543 H       1  ZINC000055987960    0.1500
     42 H42        -3.7169    3.5805   53.8642 H       1  ZINC000055987960    0.1500
     43 H43        -6.0064    4.3541   53.3942 H       1  ZINC000055987960    0.1400
     44 H44        -9.3769    0.7284   60.7815 H       1  ZINC000055987960    0.1500
     45 H45       -10.8017   -1.2729   60.7573 H       1  ZINC000055987960    0.1300
     46 H46       -13.9572   -1.1715   61.1788 H       1  ZINC000055987960    0.0800
     47 H47       -13.3232   -0.1254   59.8822 H       1  ZINC000055987960    0.1100
     48 H48       -15.3609    1.3544   60.4538 H       1  ZINC000055987960    0.0700
     49 H49       -16.9967    0.6881   60.2337 H       1  ZINC000055987960    0.0700
     50 H50       -15.9841    0.1323   61.5880 H       1  ZINC000055987960    0.0700
@<TRIPOS>BOND
     1     1     2    1
     2     1    31    1
     3     1    32    1
     4     1    33    1
     5     2     3    1
     6     2    30    1
     7     2     4    1
     8     4     5    1
     9     4    34    1
    10     4    35    1
    11     5     6   am
    12     5    26    1
    13     6     7    2
    14     6     8    1
    15     8    25   ar
    16     8     9   ar
    17     9    10   ar
    18     9    36    1
    19    10    11   ar
    20    10    37    1
    21    11    12    1
    22    11    24   ar
    23    12    13   am
    24    12    38    1
    25    13    14    2
    26    13    15    1
    27    15    16    1
    28    15    39    1
    29    15    40    1
    30    16    22   ar
    31    16    17   ar
    32    17    18    1
    33    17    19   ar
    34    19    20   ar
    35    19    41    1
    36    20    21   ar
    37    20    42    1
    38    21    22   ar
    39    21    43    1
    40    22    23    1
    41    24    25   ar
    42    24    44    1
    43    25    45    1
    44    26    27    1
    45    26    46    1
    46    26    47    1
    47    27    28    1
    48    27    29    1
    49    27    30    1
    50    29    48    1
    51    29    49    1
    52    29    50    1
@<TRIPOS>SUBSTRUCTURE
     1 ZINC000055987960        1 TEMP              0 ****  ****    0 ROOT


##########                                Name:    ZINC000464706598
##########                DOCK_Rotatable_Bonds:                   4
##########                         Heavy_Atoms:                  26
##########                    Molecular_Weight:             412.286
##########                DOCK_Rotatable_Bonds:                   4
##########                       Formal_Charge:           0.0100001
##########                     HBond_Acceptors:                   5
##########                        HBond_Donors:                   0
##########                         Heavy_Atoms:                  26
##########                          Grid_Score:          -23.131258
##########                     Grid_vdw_energy:          -23.255383
##########                      Grid_es_energy:            0.124124
##########           Internal_energy_repulsive:           57.333469

@<TRIPOS>MOLECULE
ZINC000464706598
 44 47 1 0 0
SMALL
USER_CHARGES


@<TRIPOS>ATOM
      1 O1         -8.9982   -0.0415   55.5618 O.2     1  ZINC000464706598   -0.5000
      2 C2         -9.9036    0.2939   56.3012 C.2     1  ZINC000464706598    0.5900
      3 C3         -9.8516   -0.0505   57.7336 C.2     1  ZINC000464706598   -0.2800
      4 C4         -9.8086    0.8386   58.7890 C.2     1  ZINC000464706598    0.1300
      5 N5         -9.7699    0.1151   59.9226 N.pl3   1  ZINC000464706598   -0.3100
      6 C6         -9.7200    0.6332   61.2241 C.ar    1  ZINC000464706598    0.1700
      7 C7        -10.3065    1.8594   61.5073 C.ar    1  ZINC000464706598   -0.1300
      8 C8        -10.2564    2.3675   62.7906 C.ar    1  ZINC000464706598   -0.0600
      9 C9         -9.6219    1.6560   63.7934 C.ar    1  ZINC000464706598   -0.1000
     10 Br10       -9.5545    2.3550   65.5491 Br      1  ZINC000464706598   -0.0400
     11 C11        -9.0370    0.4335   63.5138 C.ar    1  ZINC000464706598   -0.0700
     12 C12        -9.0890   -0.0814   62.2334 C.ar    1  ZINC000464706598   -0.1100
     13 N13        -9.7886   -1.2423   59.5826 N.2     1  ZINC000464706598   -0.2800
     14 C14        -9.8424   -1.3523   58.2836 C.2     1  ZINC000464706598    0.0700
     15 N15       -10.9520    0.9854   55.8120 N.am    1  ZINC000464706598   -0.6100
     16 C16       -12.0562    1.4074   56.6883 C.3     1  ZINC000464706598    0.0400
     17 C17       -13.3779    0.9771   56.0418 C.3     1  ZINC000464706598    0.0500
     18 O18       -13.4197    1.4524   54.6942 O.3     1  ZINC000464706598   -0.3700
     19 C19       -12.3979    0.9137   53.8518 C.3     1  ZINC000464706598    0.0500
     20 C20       -11.0232    1.3457   54.3870 C.3     1  ZINC000464706598    0.1600
     21 H21       -10.9052    2.4228   54.2688 H       1  ZINC000464706598    0.0900
     22 C22        -9.9354    0.6298   53.6288 C.ar    1  ZINC000464706598   -0.0500
     23 C23       -10.0701   -0.7132   53.3298 C.ar    1  ZINC000464706598   -0.1000
     24 C24        -9.0724   -1.3699   52.6342 C.ar    1  ZINC000464706598   -0.1100
     25 C25        -7.9399   -0.6837   52.2373 C.ar    1  ZINC000464706598   -0.1200
     26 C26        -7.8055    0.6594   52.5355 C.ar    1  ZINC000464706598   -0.1100
     27 C27        -8.8053    1.3172   53.2272 C.ar    1  ZINC000464706598   -0.1000
     28 H28        -9.8059    1.9162   58.7178 H       1  ZINC000464706598    0.1900
     29 H29       -10.8013    2.4156   60.7248 H       1  ZINC000464706598    0.1400
     30 H30       -10.7123    3.3213   63.0115 H       1  ZINC000464706598    0.1500
     31 H31        -8.5427   -0.1201   64.2983 H       1  ZINC000464706598    0.1500
     32 H32        -8.6327   -1.0358   62.0157 H       1  ZINC000464706598    0.1500
     33 H33        -9.8688   -2.2767   57.7259 H       1  ZINC000464706598    0.2100
     34 H34       -11.9529    0.9324   57.6638 H       1  ZINC000464706598    0.1200
     35 H35       -12.0397    2.4912   56.8035 H       1  ZINC000464706598    0.0800
     36 H36       -13.4484   -0.1106   56.0466 H       1  ZINC000464706598    0.0600
     37 H37       -14.2119    1.3991   56.6026 H       1  ZINC000464706598    0.1100
     38 H38       -12.4647   -0.1743   53.8485 H       1  ZINC000464706598    0.0600
     39 H39       -12.5267    1.2901   52.8370 H       1  ZINC000464706598    0.1100
     40 H40       -10.9550   -1.2493   53.6399 H       1  ZINC000464706598    0.1100
     41 H41        -9.1773   -2.4193   52.4012 H       1  ZINC000464706598    0.1200
     42 H42        -7.1600   -1.1970   51.6945 H       1  ZINC000464706598    0.1200
     43 H43        -6.9206    1.1955   52.2257 H       1  ZINC000464706598    0.1200
     44 H44        -8.7004    2.3666   53.4602 H       1  ZINC000464706598    0.1100
@<TRIPOS>BOND
     1     1     2    2
     2     2     3    1
     3     2    15   am
     4     3    14    1
     5     3     4    2
     6     4     5    1
     7     4    28    1
     8     5     6    1
     9     5    13    1
    10     6    12   ar
    11     6     7   ar
    12     7     8   ar
    13     7    29    1
    14     8     9   ar
    15     8    30    1
    16     9    10    1
    17     9    11   ar
    18    11    12   ar
    19    11    31    1
    20    12    32    1
    21    13    14    2
    22    14    33    1
    23    15    20    1
    24    15    16    1
    25    16    17    1
    26    16    34    1
    27    16    35    1
    28    17    18    1
    29    17    36    1
    30    17    37    1
    31    18    19    1
    32    19    20    1
    33    19    38    1
    34    19    39    1
    35    20    21    1
    36    20    22    1
    37    22    27   ar
    38    22    23   ar
    39    23    24   ar
    40    23    40    1
    41    24    25   ar
    42    24    41    1
    43    25    26   ar
    44    25    42    1
    45    26    27   ar
    46    26    43    1
    47    27    44    1
@<TRIPOS>SUBSTRUCTURE
     1 ZINC000464706598        1 TEMP              0 ****  ****    0 ROOT


##########                                Name:    ZINC000482962466
##########                DOCK_Rotatable_Bonds:                   2
##########                         Heavy_Atoms:                  25
##########                    Molecular_Weight:             404.303
##########                DOCK_Rotatable_Bonds:                   2
##########                       Formal_Charge:           0.0200002
##########                     HBond_Acceptors:                   4
##########                        HBond_Donors:                   0
##########                         Heavy_Atoms:                  25
##########                          Grid_Score:          -22.991999
##########                     Grid_vdw_energy:          -22.603905
##########                      Grid_es_energy:           -0.388095
##########           Internal_energy_repulsive:            8.116812

@<TRIPOS>MOLECULE
ZINC000482962466
 47 50 1 0 0
SMALL
USER_CHARGES


@<TRIPOS>ATOM
      1 C1        -10.2769   -0.1513   59.1573 C.3     1  ZINC000482962466   -0.1400
      2 C2        -11.4176   -0.4553   58.1840 C.3     1  ZINC000482962466    0.0700
      3 H3        -11.2699   -1.4430   57.7472 H       1  ZINC000482962466    0.0700
      4 C4        -11.4363    0.5991   57.0715 C.3     1  ZINC000482962466    0.0800
      5 N5        -12.6463    0.3966   56.2590 N.am    1  ZINC000482962466   -0.6100
      6 C6        -12.5743    0.3127   54.9158 C.2     1  ZINC000482962466    0.5600
      7 O7        -13.5855    0.1451   54.2622 O.2     1  ZINC000482962466   -0.5200
      8 C8        -11.2663    0.4241   54.2376 C.ar    1  ZINC000482962466   -0.1100
      9 C9        -10.7665   -0.6653   53.5022 C.ar    1  ZINC000482962466   -0.0700
     10 C10        -9.5677   -0.5873   52.8704 C.ar    1  ZINC000482962466   -0.1000
     11 C11        -8.8077    0.5943   52.9460 C.ar    1  ZINC000482962466   -0.0400
     12 C12        -7.5647    0.6985   52.3005 C.ar    1  ZINC000482962466   -0.0700
     13 C13        -6.8515    1.8557   52.3914 C.ar    1  ZINC000482962466   -0.0800
     14 Br14       -5.1789    1.9897   51.5196 Br      1  ZINC000482962466   -0.0400
     15 C15        -7.3366    2.9432   53.1175 C.ar    1  ZINC000482962466   -0.1000
     16 C16        -8.5363    2.8788   53.7561 C.ar    1  ZINC000482962466   -0.0900
     17 C17        -9.3012    1.7003   53.6843 C.ar    1  ZINC000482962466   -0.0500
     18 C18       -10.5443    1.6031   54.3262 C.ar    1  ZINC000482962466   -0.0700
     19 C19       -13.9376    0.2889   56.9569 C.3     1  ZINC000482962466    0.0700
     20 C20       -13.7967   -0.7477   58.0759 C.3     1  ZINC000482962466    0.0800
     21 C21       -15.0607   -0.7417   58.9393 C.3     1  ZINC000482962466   -0.1100
     22 C22       -14.9429   -1.8360   60.0050 C.3     1  ZINC000482962466   -0.1500
     23 C23       -14.7123   -3.1841   59.3172 C.3     1  ZINC000482962466    0.0600
     24 O24       -13.5372   -3.1105   58.5075 O.3     1  ZINC000482962466   -0.3700
     25 C25       -13.6085   -2.1372   57.4634 C.3     1  ZINC000482962466    0.0400
     26 O26       -12.6639   -0.4243   58.8841 O.3     1  ZINC000482962466   -0.3500
     27 H27       -10.2655   -0.9003   59.9490 H       1  ZINC000482962466    0.0700
     28 H28        -9.3274   -0.1733   58.6225 H       1  ZINC000482962466    0.0800
     29 H29       -10.4253    0.8364   59.5938 H       1  ZINC000482962466    0.0700
     30 H30       -11.4522    1.5964   57.5113 H       1  ZINC000482962466    0.0800
     31 H31       -10.5509    0.4878   56.4454 H       1  ZINC000482962466    0.1000
     32 H32       -11.3438   -1.5760   53.4398 H       1  ZINC000482962466    0.1400
     33 H33        -9.1969   -1.4327   52.3097 H       1  ZINC000482962466    0.1400
     34 H34        -7.1756   -0.1353   51.7349 H       1  ZINC000482962466    0.1400
     35 H35        -6.7516    3.8492   53.1738 H       1  ZINC000482962466    0.1400
     36 H36        -8.8995    3.7283   54.3153 H       1  ZINC000482962466    0.1400
     37 H37       -10.9335    2.4390   54.8886 H       1  ZINC000482962466    0.1400
     38 H38       -14.2063    1.2554   57.3833 H       1  ZINC000482962466    0.0900
     39 H39       -14.7085   -0.0305   56.2554 H       1  ZINC000482962466    0.1000
     40 H40       -15.1669    0.2290   59.4235 H       1  ZINC000482962466    0.0800
     41 H41       -15.9312   -0.9353   58.3126 H       1  ZINC000482962466    0.0800
     42 H42       -14.1028   -1.6144   60.6632 H       1  ZINC000482962466    0.0800
     43 H43       -15.8628   -1.8772   60.5881 H       1  ZINC000482962466    0.0800
     44 H44       -14.5854   -3.9601   60.0720 H       1  ZINC000482962466    0.1000
     45 H45       -15.5711   -3.4238   58.6903 H       1  ZINC000482962466    0.0500
     46 H46       -14.4519   -2.3643   56.8115 H       1  ZINC000482962466    0.0600
     47 H47       -12.6853   -2.1570   56.8842 H       1  ZINC000482962466    0.1000
@<TRIPOS>BOND
     1     1     2    1
     2     1    27    1
     3     1    28    1
     4     1    29    1
     5     2     3    1
     6     2    26    1
     7     2     4    1
     8     4     5    1
     9     4    30    1
    10     4    31    1
    11     5     6   am
    12     5    19    1
    13     6     7    2
    14     6     8    1
    15     8    18   ar
    16     8     9   ar
    17     9    10   ar
    18     9    32    1
    19    10    11   ar
    20    10    33    1
    21    11    17   ar
    22    11    12   ar
    23    12    13   ar
    24    12    34    1
    25    13    14    1
    26    13    15   ar
    27    15    16   ar
    28    15    35    1
    29    16    17   ar
    30    16    36    1
    31    17    18   ar
    32    18    37    1
    33    19    20    1
    34    19    38    1
    35    19    39    1
    36    20    25    1
    37    20    21    1
    38    20    26    1
    39    21    22    1
    40    21    40    1
    41    21    41    1
    42    22    23    1
    43    22    42    1
    44    22    43    1
    45    23    24    1
    46    23    44    1
    47    23    45    1
    48    24    25    1
    49    25    46    1
    50    25    47    1
@<TRIPOS>SUBSTRUCTURE
     1 ZINC000482962466        1 TEMP              0 ****  ****    0 ROOT


##########                                Name:    ZINC000883773972
##########                DOCK_Rotatable_Bonds:                   4
##########                         Heavy_Atoms:                  23
##########                    Molecular_Weight:             343.447
##########                DOCK_Rotatable_Bonds:                   4
##########                       Formal_Charge:                0.01
##########                     HBond_Acceptors:                   8
##########                        HBond_Donors:                   1
##########                         Heavy_Atoms:                  23
##########                          Grid_Score:          -22.704653
##########                     Grid_vdw_energy:          -21.152399
##########                      Grid_es_energy:           -1.552254
##########           Internal_energy_repulsive:            5.404090

@<TRIPOS>MOLECULE
ZINC000883773972
 48 50 1 0 0
SMALL
USER_CHARGES


@<TRIPOS>ATOM
      1 C1         -9.3720    1.0523   65.6161 C.3     1  ZINC000883773972   -0.1700
      2 C2        -10.3745    1.8280   64.8009 C.2     1  ZINC000883773972    0.5300
      3 O3        -11.2884    2.4041   65.3519 O.2     1  ZINC000883773972   -0.5400
      4 N4        -10.2552    1.8816   63.4595 N.am    1  ZINC000883773972   -0.6200
      5 C5         -9.2132    1.2382   62.6424 C.3     1  ZINC000883773972    0.1100
      6 C6         -9.8693    0.8951   61.2947 C.3     1  ZINC000883773972   -0.1100
      7 H7        -10.1111   -0.1650   61.2192 H       1  ZINC000883773972    0.1000
      8 C8         -8.9522    1.3562   60.1495 C.3     1  ZINC000883773972    0.1300
      9 N9         -9.8046    2.1034   59.2103 N.am    1  ZINC000883773972   -0.6400
     10 C10        -9.6489    2.1885   57.8741 C.2     1  ZINC000883773972    0.7300
     11 O11       -10.4307    2.8426   57.2115 O.2     1  ZINC000883773972   -0.5800
     12 N12        -8.6266    1.5483   57.2727 N.am    1  ZINC000883773972   -0.7400
     13 C13        -8.4584    1.6394   55.8203 C.3     1  ZINC000883773972    0.1800
     14 H14        -9.1342    2.3977   55.4247 H       1  ZINC000883773972    0.1100
     15 C15        -7.0180    2.0284   55.5006 C.3     1  ZINC000883773972   -0.1500
     16 C16        -6.8700    2.3752   54.0220 C.3     1  ZINC000883773972   -0.1000
     17 C17        -7.0098    1.1106   53.1715 C.3     1  ZINC000883773972   -0.5600
     18 H18        -6.2791    0.3699   53.4965 H       1  ZINC000883773972    0.1400
     19 C19        -6.7709    1.4542   51.6999 C.3     1  ZINC000883773972   -0.1400
     20 S20        -8.6862    0.4417   53.3777 S.o2    1  ZINC000883773972    2.4200
     21 O21        -9.6226    1.4221   52.9517 O.2     1  ZINC000883773972   -0.9200
     22 O22        -8.7310   -0.8578   52.8047 O.2     1  ZINC000883773972   -0.9300
     23 C23        -8.7859    0.2862   55.1851 C.3     1  ZINC000883773972   -0.6300
     24 C24       -10.8603    2.7395   60.0153 C.3     1  ZINC000883773972    0.1100
     25 C25       -11.1345    1.7847   61.2177 C.3     1  ZINC000883773972   -0.1100
     26 H26       -12.0514    1.2116   61.0798 H       1  ZINC000883773972    0.1000
     27 C27       -11.1450    2.5897   62.5247 C.3     1  ZINC000883773972    0.1100
     28 H28        -9.6300    1.1236   66.6728 H       1  ZINC000883773972    0.0900
     29 H29        -9.3850    0.0066   65.3087 H       1  ZINC000883773972    0.0900
     30 H30        -8.3761    1.4657   65.4565 H       1  ZINC000883773972    0.0900
     31 H31        -8.3807    1.9249   62.4893 H       1  ZINC000883773972    0.0800
     32 H32        -8.8636    0.3284   63.1306 H       1  ZINC000883773972    0.0900
     33 H33        -8.1659    2.0037   60.5376 H       1  ZINC000883773972    0.0700
     34 H34        -8.5135    0.4921   59.6505 H       1  ZINC000883773972    0.0900
     35 H35        -8.0022    1.0274   57.8016 H       1  ZINC000883773972    0.4000
     36 H36        -6.7374    2.8929   56.1021 H       1  ZINC000883773972    0.0900
     37 H37        -6.3588    1.1945   55.7417 H       1  ZINC000883773972    0.0800
     38 H38        -7.6434    3.0891   53.7387 H       1  ZINC000883773972    0.0900
     39 H39        -5.8894    2.8195   53.8511 H       1  ZINC000883773972    0.0900
     40 H40        -5.7673    1.8624   51.5805 H       1  ZINC000883773972    0.0800
     41 H41        -6.8709    0.5528   51.0954 H       1  ZINC000883773972    0.0700
     42 H42        -7.5044    2.1924   51.3755 H       1  ZINC000883773972    0.0800
     43 H43        -8.0706   -0.4621   55.5268 H       1  ZINC000883773972    0.1400
     44 H44        -9.7941   -0.0141   55.4705 H       1  ZINC000883773972    0.1400
     45 H45       -10.5237    3.7130   60.3716 H       1  ZINC000883773972    0.0800
     46 H46       -11.7675    2.8511   59.4214 H       1  ZINC000883773972    0.0800
     47 H47       -12.1597    2.6508   62.9182 H       1  ZINC000883773972    0.0900
     48 H48       -10.7496    3.5904   62.3508 H       1  ZINC000883773972    0.0700
@<TRIPOS>BOND
     1     1     2    1
     2     1    28    1
     3     1    29    1
     4     1    30    1
     5     2     3    2
     6     2     4   am
     7     4    27    1
     8     4     5    1
     9     5     6    1
    10     5    31    1
    11     5    32    1
    12     6     7    1
    13     6    25    1
    14     6     8    1
    15     8     9    1
    16     8    33    1
    17     8    34    1
    18     9    10   am
    19     9    24    1
    20    10    11    2
    21    10    12   am
    22    12    13    1
    23    12    35    1
    24    13    14    1
    25    13    23    1
    26    13    15    1
    27    15    16    1
    28    15    36    1
    29    15    37    1
    30    16    17    1
    31    16    38    1
    32    16    39    1
    33    17    18    1
    34    17    19    1
    35    17    20    1
    36    19    40    1
    37    19    41    1
    38    19    42    1
    39    20    21    2
    40    20    22    2
    41    20    23    1
    42    23    43    1
    43    23    44    1
    44    24    25    1
    45    24    45    1
    46    24    46    1
    47    25    26    1
    48    25    27    1
    49    27    47    1
    50    27    48    1
@<TRIPOS>SUBSTRUCTURE
     1 ZINC000883773972        1 TEMP              0 ****  ****    0 ROOT


##########                                Name:    ZINC000794876634
##########                DOCK_Rotatable_Bonds:                   4
##########                         Heavy_Atoms:                  24
##########                    Molecular_Weight:             389.249
##########                DOCK_Rotatable_Bonds:                   4
##########                       Formal_Charge:        -4.47035e-08
##########                     HBond_Acceptors:                   5
##########                        HBond_Donors:                   0
##########                         Heavy_Atoms:                  24
##########                          Grid_Score:          -22.517643
##########                     Grid_vdw_energy:          -21.761166
##########                      Grid_es_energy:           -0.756476
##########           Internal_energy_repulsive:           53.556416

@<TRIPOS>MOLECULE
ZINC000794876634
 41 43 1 0 0
SMALL
USER_CHARGES


@<TRIPOS>ATOM
      1 C1         -6.5068    2.5176   56.2747 C.3     1  ZINC000794876634    0.0200
      2 O2         -7.2411    1.8984   55.2167 O.3     1  ZINC000794876634   -0.3000
      3 C3         -8.0476    0.8586   55.5523 C.ar    1  ZINC000794876634    0.1300
      4 C4         -8.2778    0.5651   56.8901 C.ar    1  ZINC000794876634   -0.1800
      5 C5         -9.0942   -0.4882   57.2374 C.ar    1  ZINC000794876634   -0.0400
      6 C6         -9.3414   -0.8032   58.6902 C.3     1  ZINC000794876634   -0.1200
      7 C7         -9.6952   -1.2665   56.2392 C.ar    1  ZINC000794876634   -0.1000
      8 C8        -10.5650   -2.3880   56.6052 C.2     1  ZINC000794876634    0.0600
      9 C9        -11.9082   -2.1917   56.7473 C.2     1  ZINC000794876634   -0.1700
     10 C10       -12.9286   -3.1912   57.1072 C.2     1  ZINC000794876634    0.5700
     11 O11       -12.7267   -4.3693   57.3384 O.2     1  ZINC000794876634   -0.4900
     12 N12       -14.1213   -2.5734   57.1360 N.am    1  ZINC000794876634   -0.5300
     13 C13       -15.3863   -3.2390   57.4572 C.3     1  ZINC000794876634    0.0800
     14 C14       -14.0060   -1.2274   56.8247 C.ar    1  ZINC000794876634    0.3700
     15 N15       -14.9153   -0.2644   56.7386 N.ar    1  ZINC000794876634   -0.4900
     16 C16       -14.5916    0.9731   56.4223 C.ar    1  ZINC000794876634    0.1800
     17 C17       -13.2815    1.3343   56.1625 C.ar    1  ZINC000794876634   -0.1800
     18 Br18      -12.8513    3.1197   55.7119 Br      1  ZINC000794876634   -0.0200
     19 C19       -12.2876    0.3692   56.2374 C.ar    1  ZINC000794876634    0.0000
     20 C20       -12.6576   -0.9271   56.5797 C.ar    1  ZINC000794876634   -0.1400
     21 C21        -9.4620   -0.9685   54.8892 C.ar    1  ZINC000794876634   -0.1400
     22 C22        -8.6466    0.0922   54.5518 C.ar    1  ZINC000794876634    0.0900
     23 O23        -8.4184    0.3846   53.2434 O.3     1  ZINC000794876634   -0.3000
     24 C24        -7.3621    1.3038   52.9586 C.3     1  ZINC000794876634    0.0200
     25 H25        -5.9043    3.3312   55.8711 H       1  ZINC000794876634    0.1000
     26 H26        -7.2014    2.9128   57.0161 H       1  ZINC000794876634    0.0600
     27 H27        -5.8548    1.7808   56.7441 H       1  ZINC000794876634    0.0600
     28 H28        -7.8150    1.1645   57.6601 H       1  ZINC000794876634    0.1400
     29 H29       -10.2136   -0.2500   59.0386 H       1  ZINC000794876634    0.0800
     30 H30        -9.5196   -1.8724   58.8049 H       1  ZINC000794876634    0.0700
     31 H31        -8.4698   -0.5151   59.2779 H       1  ZINC000794876634    0.0700
     32 H32       -10.1431   -3.3696   56.7625 H       1  ZINC000794876634    0.1500
     33 H33       -15.2001   -4.2931   57.6630 H       1  ZINC000794876634    0.0900
     34 H34       -15.8308   -2.7703   58.3352 H       1  ZINC000794876634    0.0800
     35 H35       -16.0691   -3.1488   56.6123 H       1  ZINC000794876634    0.0800
     36 H36       -15.3668    1.7227   56.3642 H       1  ZINC000794876634    0.1800
     37 H37       -11.2554    0.6185   56.0400 H       1  ZINC000794876634    0.1600
     38 H38        -9.9225   -1.5650   54.1155 H       1  ZINC000794876634    0.1400
     39 H39        -7.6117    2.2824   53.3688 H       1  ZINC000794876634    0.0500
     40 H40        -6.4371    0.9456   53.4103 H       1  ZINC000794876634    0.0600
     41 H41        -7.2318    1.3846   51.8794 H       1  ZINC000794876634    0.1100
@<TRIPOS>BOND
     1     1     2    1
     2     1    25    1
     3     1    26    1
     4     1    27    1
     5     2     3    1
     6     3    22   ar
     7     3     4   ar
     8     4     5   ar
     9     4    28    1
    10     5     6    1
    11     5     7   ar
    12     6    29    1
    13     6    30    1
    14     6    31    1
    15     7     8    1
    16     7    21   ar
    17     8     9    2
    18     8    32    1
    19     9    20    1
    20     9    10    1
    21    10    11    2
    22    10    12   am
    23    12    13    1
    24    12    14    1
    25    13    33    1
    26    13    34    1
    27    13    35    1
    28    14    20   ar
    29    14    15   ar
    30    15    16   ar
    31    16    17   ar
    32    16    36    1
    33    17    18    1
    34    17    19   ar
    35    19    20   ar
    36    19    37    1
    37    21    22   ar
    38    21    38    1
    39    22    23    1
    40    23    24    1
    41    24    39    1
    42    24    40    1
    43    24    41    1
@<TRIPOS>SUBSTRUCTURE
     1 ZINC000794876634        1 TEMP              0 ****  ****    0 ROOT


##########                                Name:    ZINC000558213406
##########                DOCK_Rotatable_Bonds:                   8
##########                         Heavy_Atoms:                  30
##########                    Molecular_Weight:               408.5
##########                DOCK_Rotatable_Bonds:                   8
##########                       Formal_Charge:          -0.0299987
##########                     HBond_Acceptors:                   7
##########                        HBond_Donors:                   2
##########                         Heavy_Atoms:                  30
##########                          Grid_Score:          -22.431253
##########                     Grid_vdw_energy:          -21.859505
##########                      Grid_es_energy:           -0.571749
##########           Internal_energy_repulsive:           12.014991

@<TRIPOS>MOLECULE
ZINC000558213406
 58 61 1 0 0
SMALL
USER_CHARGES


@<TRIPOS>ATOM
      1 O1         -6.8930    1.4180   55.0463 O.2     1  ZINC000558213406   -0.5700
      2 C2         -7.2469    2.5215   55.4144 C.2     1  ZINC000558213406    0.7100
      3 N3         -8.4925    2.7040   55.8958 N.am    1  ZINC000558213406   -0.6800
      4 C4         -9.3816    1.6231   55.9666 C.ar    1  ZINC000558213406    0.1700
      5 C5         -9.7831    1.1340   57.2025 C.ar    1  ZINC000558213406   -0.1300
      6 C6        -10.6597    0.0693   57.2717 C.ar    1  ZINC000558213406   -0.1100
      7 C7        -11.1388   -0.5121   56.1066 C.ar    1  ZINC000558213406    0.0600
      8 O8        -12.0014   -1.5606   56.1754 O.3     1  ZINC000558213406   -0.2500
      9 C9        -13.2442   -1.3326   56.6756 C.ar    1  ZINC000558213406    0.0700
     10 C10       -14.0761   -2.3963   57.0107 C.ar    1  ZINC000558213406   -0.1500
     11 C11       -15.3345   -2.1137   57.5172 C.ar    1  ZINC000558213406   -0.1300
     12 C12       -15.7193   -0.7952   57.6719 C.ar    1  ZINC000558213406    0.0600
     13 N13       -14.9066    0.1903   57.3441 N.ar    1  ZINC000558213406   -0.4500
     14 C14       -13.6996   -0.0354   56.8650 C.ar    1  ZINC000558213406    0.0800
     15 C15       -10.7382   -0.0234   54.8715 C.ar    1  ZINC000558213406   -0.1000
     16 C16        -9.8658    1.0447   54.8010 C.ar    1  ZINC000558213406   -0.1100
     17 N17        -6.3918    3.5611   55.3463 N.am    1  ZINC000558213406   -0.7300
     18 C18        -5.0378    3.3627   54.8230 C.3     1  ZINC000558213406    0.1500
     19 H19        -4.9778    2.4347   54.2544 H       1  ZINC000558213406    0.1100
     20 C20        -4.6043    4.5702   53.9505 C.3     1  ZINC000558213406   -0.1400
     21 C21        -3.0621    4.5141   54.0862 C.3     1  ZINC000558213406    0.1000
     22 N22        -2.8208    4.0996   55.4803 N.am    1  ZINC000558213406   -0.6200
     23 C23        -1.7020    4.3457   56.1904 C.2     1  ZINC000558213406    0.5400
     24 O24        -0.7850    4.9572   55.6846 O.2     1  ZINC000558213406   -0.5300
     25 C25        -1.5906    3.8608   57.6130 C.3     1  ZINC000558213406   -0.1000
     26 C26        -0.9836    2.4565   57.6270 C.3     1  ZINC000558213406   -0.1100
     27 C27        -0.8705    1.9643   59.0713 C.3     1  ZINC000558213406   -0.1200
     28 C28         0.0266    2.9157   59.8656 C.3     1  ZINC000558213406   -0.1200
     29 C29        -0.5805    4.3200   59.8514 C.3     1  ZINC000558213406   -0.1200
     30 C30        -0.6936    4.8122   58.4072 C.3     1  ZINC000558213406   -0.1100
     31 C31        -4.0035    3.3694   55.9683 C.3     1  ZINC000558213406    0.1000
     32 H32        -8.7735    3.5834   56.1932 H       1  ZINC000558213406    0.4100
     33 H33        -9.4097    1.5861   58.1094 H       1  ZINC000558213406    0.1300
     34 H34       -10.9720   -0.3111   58.2331 H       1  ZINC000558213406    0.1400
     35 H35       -13.7491   -3.4171   56.8789 H       1  ZINC000558213406    0.1400
     36 H36       -16.0070   -2.9144   57.7877 H       1  ZINC000558213406    0.1400
     37 H37       -16.6990   -0.5690   58.0663 H       1  ZINC000558213406    0.1600
     38 H38       -13.0622    0.7976   56.6080 H       1  ZINC000558213406    0.1700
     39 H39       -11.1116   -0.4763   53.9648 H       1  ZINC000558213406    0.1400
     40 H40        -9.5544    1.4251   53.8395 H       1  ZINC000558213406    0.1500
     41 H41        -6.6728    4.4405   55.6438 H       1  ZINC000558213406    0.4000
     42 H42        -4.9105    4.4328   52.9135 H       1  ZINC000558213406    0.0900
     43 H43        -4.9981    5.5038   54.3521 H       1  ZINC000558213406    0.0800
     44 H44        -2.6470    3.7806   53.3951 H       1  ZINC000558213406    0.0700
     45 H45        -2.6292    5.4973   53.9024 H       1  ZINC000558213406    0.0800
     46 H46        -2.5817    3.8328   58.0659 H       1  ZINC000558213406    0.0900
     47 H47        -1.6227    1.7786   57.0611 H       1  ZINC000558213406    0.0600
     48 H48         0.0074    2.4845   57.1740 H       1  ZINC000558213406    0.0700
     49 H49        -1.8615    1.9362   59.5242 H       1  ZINC000558213406    0.0600
     50 H50        -0.4380    0.9638   59.0813 H       1  ZINC000558213406    0.0700
     51 H51         0.1071    2.5650   60.8944 H       1  ZINC000558213406    0.0600
     52 H52         1.0176    2.9437   59.4126 H       1  ZINC000558213406    0.0600
     53 H53        -1.5715    4.2920   60.3044 H       1  ZINC000558213406    0.0600
     54 H54         0.0586    4.9978   60.4174 H       1  ZINC000558213406    0.0700
     55 H55         0.2974    4.8403   57.9543 H       1  ZINC000558213406    0.0800
     56 H56        -1.1261    5.8127   58.3971 H       1  ZINC000558213406    0.0600
     57 H57        -4.4201    3.8774   56.8380 H       1  ZINC000558213406    0.0800
     58 H58        -3.7267    2.3481   56.2302 H       1  ZINC000558213406    0.0800
@<TRIPOS>BOND
     1     1     2    2
     2     2     3   am
     3     2    17   am
     4     3     4    1
     5     3    32    1
     6     4    16   ar
     7     4     5   ar
     8     5     6   ar
     9     5    33    1
    10     6     7   ar
    11     6    34    1
    12     7     8    1
    13     7    15   ar
    14     8     9    1
    15     9    14   ar
    16     9    10   ar
    17    10    11   ar
    18    10    35    1
    19    11    12   ar
    20    11    36    1
    21    12    13   ar
    22    12    37    1
    23    13    14   ar
    24    14    38    1
    25    15    16   ar
    26    15    39    1
    27    16    40    1
    28    17    18    1
    29    17    41    1
    30    18    19    1
    31    18    31    1
    32    18    20    1
    33    20    21    1
    34    20    42    1
    35    20    43    1
    36    21    22    1
    37    21    44    1
    38    21    45    1
    39    22    23   am
    40    22    31    1
    41    23    24    2
    42    23    25    1
    43    25    30    1
    44    25    26    1
    45    25    46    1
    46    26    27    1
    47    26    47    1
    48    26    48    1
    49    27    28    1
    50    27    49    1
    51    27    50    1
    52    28    29    1
    53    28    51    1
    54    28    52    1
    55    29    30    1
    56    29    53    1
    57    29    54    1
    58    30    55    1
    59    30    56    1
    60    31    57    1
    61    31    58    1
@<TRIPOS>SUBSTRUCTURE
     1 ZINC000558213406        1 TEMP              0 ****  ****    0 ROOT


##########                                Name:    ZINC000469391664
##########                DOCK_Rotatable_Bonds:                   6
##########                         Heavy_Atoms:                  29
##########                    Molecular_Weight:             408.524
##########                DOCK_Rotatable_Bonds:                   6
##########                       Formal_Charge:         -0.00999999
##########                     HBond_Acceptors:                   7
##########                        HBond_Donors:                   0
##########                         Heavy_Atoms:                  29
##########                          Grid_Score:          -22.324287
##########                     Grid_vdw_energy:          -21.995510
##########                      Grid_es_energy:           -0.328778
##########           Internal_energy_repulsive:          124.544678

@<TRIPOS>MOLECULE
ZINC000469391664
 53 56 1 0 0
SMALL
USER_CHARGES


@<TRIPOS>ATOM
      1 C1        -15.7407    2.2152   57.4130 C.3     1  ZINC000469391664   -0.1500
      2 C2        -14.7758    1.0428   57.2246 C.3     1  ZINC000469391664   -0.1000
      3 H3        -14.5699    0.9090   56.1627 H       1  ZINC000469391664    0.0800
      4 C4        -15.4078   -0.2329   57.7863 C.3     1  ZINC000469391664   -0.1300
      5 C5        -14.4537   -1.4108   57.5649 C.3     1  ZINC000469391664    0.1100
      6 N6        -13.1471   -1.0772   58.1484 N.am    1  ZINC000469391664   -0.6100
      7 C7        -12.5605   -1.9040   59.0365 C.2     1  ZINC000469391664    0.5600
      8 O8        -13.1126   -2.9373   59.3620 O.2     1  ZINC000469391664   -0.5000
      9 C9        -11.2486   -1.5553   59.6135 C.ar    1  ZINC000469391664   -0.1100
     10 C10       -11.1753   -0.8261   60.8024 C.ar    1  ZINC000469391664   -0.0900
     11 C11        -9.9464   -0.5039   61.3368 C.ar    1  ZINC000469391664   -0.1000
     12 C12        -8.7811   -0.8993   60.7002 C.ar    1  ZINC000469391664   -0.0900
     13 C13        -8.8374   -1.6201   59.5242 C.ar    1  ZINC000469391664   -0.1000
     14 C14       -10.0664   -1.9593   58.9743 C.ar    1  ZINC000469391664    0.1500
     15 N15       -10.1255   -2.6859   57.7888 N.am    1  ZINC000469391664   -0.5800
     16 C16       -10.3991   -4.1247   57.8243 C.3     1  ZINC000469391664    0.0900
     17 C17        -9.9310   -2.0659   56.6079 C.2     1  ZINC000469391664    0.6100
     18 O18        -9.9829   -2.7013   55.5712 O.2     1  ZINC000469391664   -0.5200
     19 C19        -9.6573   -0.6269   56.5725 C.2     1  ZINC000469391664   -0.2600
     20 C20        -9.5699    0.1907   57.6644 C.2     1  ZINC000469391664   -0.0500
     21 C21        -9.3027    1.5002   57.3428 C.2     1  ZINC000469391664   -0.1500
     22 C22        -9.1753    1.7489   56.0341 C.2     1  ZINC000469391664   -0.2600
     23 S23        -9.3813    0.3236   55.1192 S.3     1  ZINC000469391664    0.2300
     24 C24       -12.4922    0.1745   57.7450 C.3     1  ZINC000469391664    0.1000
     25 C25       -13.4684    1.3346   57.9647 C.3     1  ZINC000469391664    0.1300
     26 H26       -13.6697    1.4438   59.0303 H       1  ZINC000469391664    0.1000
     27 N27       -12.8801    2.5731   57.4487 N.pl3   1  ZINC000469391664   -0.4500
     28 C28       -12.3693    2.7684   56.1939 C.2     1  ZINC000469391664   -0.0500
     29 C29       -11.9363    4.0426   56.1435 C.2     1  ZINC000469391664   -0.0300
     30 N30       -12.1761    4.6098   57.3350 N.2     1  ZINC000469391664   -0.4900
     31 C31       -12.7460    3.7370   58.1202 C.2     1  ZINC000469391664    0.1800
     32 H32       -15.2910    3.1238   57.0125 H       1  ZINC000469391664    0.0600
     33 H33       -16.6718    2.0077   56.8855 H       1  ZINC000469391664    0.0600
     34 H34       -15.9467    2.3492   58.4749 H       1  ZINC000469391664    0.0600
     35 H35       -15.5909   -0.1087   58.8535 H       1  ZINC000469391664    0.0700
     36 H36       -16.3506   -0.4274   57.2750 H       1  ZINC000469391664    0.0900
     37 H37       -14.8538   -2.3012   58.0497 H       1  ZINC000469391664    0.1000
     38 H38       -14.3406   -1.5937   56.4963 H       1  ZINC000469391664    0.0800
     39 H39       -12.0806   -0.5149   61.3021 H       1  ZINC000469391664    0.1400
     40 H40        -9.8915    0.0599   62.2561 H       1  ZINC000469391664    0.1400
     41 H41        -7.8229   -0.6417   61.1265 H       1  ZINC000469391664    0.1400
     42 H42        -7.9246   -1.9243   59.0338 H       1  ZINC000469391664    0.1400
     43 H43       -11.4656   -4.2955   57.6771 H       1  ZINC000469391664    0.0600
     44 H44        -9.8389   -4.6208   57.0318 H       1  ZINC000469391664    0.0900
     45 H45       -10.0966   -4.5282   58.7905 H       1  ZINC000469391664    0.0700
     46 H46        -9.6984   -0.1573   58.6787 H       1  ZINC000469391664    0.1500
     47 H47        -9.2032    2.2721   58.0917 H       1  ZINC000469391664    0.1400
     48 H48        -8.9659    2.7213   55.6134 H       1  ZINC000469391664    0.1600
     49 H49       -11.5981    0.3302   58.3487 H       1  ZINC000469391664    0.1000
     50 H50       -12.2192    0.1210   56.6911 H       1  ZINC000469391664    0.0800
     51 H51       -12.3223    2.0405   55.3975 H       1  ZINC000469391664    0.1700
     52 H52       -11.4764    4.5234   55.2927 H       1  ZINC000469391664    0.1700
     53 H53       -13.0532    3.9142   59.1403 H       1  ZINC000469391664    0.2000
@<TRIPOS>BOND
     1     1     2    1
     2     1    32    1
     3     1    33    1
     4     1    34    1
     5     2     3    1
     6     2    25    1
     7     2     4    1
     8     4     5    1
     9     4    35    1
    10     4    36    1
    11     5     6    1
    12     5    37    1
    13     5    38    1
    14     6     7   am
    15     6    24    1
    16     7     8    2
    17     7     9    1
    18     9    14   ar
    19     9    10   ar
    20    10    11   ar
    21    10    39    1
    22    11    12   ar
    23    11    40    1
    24    12    13   ar
    25    12    41    1
    26    13    14   ar
    27    13    42    1
    28    14    15    1
    29    15    16    1
    30    15    17   am
    31    16    43    1
    32    16    44    1
    33    16    45    1
    34    17    18    2
    35    17    19    1
    36    19    23    1
    37    19    20    2
    38    20    21    1
    39    20    46    1
    40    21    22    2
    41    21    47    1
    42    22    23    1
    43    22    48    1
    44    24    25    1
    45    24    49    1
    46    24    50    1
    47    25    26    1
    48    25    27    1
    49    27    31    1
    50    27    28    1
    51    28    29    2
    52    28    51    1
    53    29    30    1
    54    29    52    1
    55    30    31    2
    56    31    53    1
@<TRIPOS>SUBSTRUCTURE
     1 ZINC000469391664        1 TEMP              0 ****  ****    0 ROOT


##########                                Name:    ZINC000646817380
##########                DOCK_Rotatable_Bonds:                   6
##########                         Heavy_Atoms:                  25
##########                    Molecular_Weight:             347.457
##########                DOCK_Rotatable_Bonds:                   6
##########                       Formal_Charge:           0.0199991
##########                     HBond_Acceptors:                   6
##########                        HBond_Donors:                   1
##########                         Heavy_Atoms:                  25
##########                          Grid_Score:          -22.007559
##########                     Grid_vdw_energy:          -21.776045
##########                      Grid_es_energy:           -0.231515
##########           Internal_energy_repulsive:           57.458885

@<TRIPOS>MOLECULE
ZINC000646817380
 54 56 1 0 0
SMALL
USER_CHARGES


@<TRIPOS>ATOM
      1 C1         -5.1101    2.2747   51.7201 C.3     1  ZINC000646817380   -0.1500
      2 C2         -6.0601    2.4694   52.9036 C.3     1  ZINC000646817380   -0.0100
      3 C3         -6.5591    3.9155   52.9245 C.3     1  ZINC000646817380   -0.1500
      4 C4         -7.2341    1.5348   52.7644 C.2     1  ZINC000646817380   -0.0100
      5 C5         -8.5032    1.7655   53.1709 C.2     1  ZINC000646817380   -0.2200
      6 C6         -9.2000    0.5825   52.8063 C.2     1  ZINC000646817380    0.2400
      7 N7        -10.5523    0.3124   53.0075 N.am    1  ZINC000646817380   -0.6100
      8 C8        -11.4548    1.3117   52.9511 C.2     1  ZINC000646817380    0.5200
      9 O9        -11.0900    2.4466   52.7238 O.2     1  ZINC000646817380   -0.4900
     10 C10       -12.9040    1.0225   53.1686 C.2     1  ZINC000646817380    0.5300
     11 O11       -13.7264    1.4023   52.3610 O.2     1  ZINC000646817380   -0.5100
     12 N12       -13.2984    0.3398   54.2617 N.am    1  ZINC000646817380   -0.5800
     13 C13       -14.6858   -0.0118   54.5979 C.3     1  ZINC000646817380    0.1000
     14 C14       -14.6541   -0.7645   55.9448 C.3     1  ZINC000646817380   -0.1300
     15 C15       -13.3127   -0.3001   56.5710 C.3     1  ZINC000646817380   -0.1000
     16 H16       -13.4257    0.6645   57.0660 H       1  ZINC000646817380    0.1000
     17 C17       -12.7675   -1.3502   57.5409 C.3     1  ZINC000646817380   -0.0700
     18 H18       -13.0716   -2.3470   57.2212 H       1  ZINC000646817380    0.0800
     19 C19       -11.2286   -1.2623   57.6047 C.3     1  ZINC000646817380   -0.1300
     20 C20       -10.8933   -1.5450   59.0902 C.3     1  ZINC000646817380   -0.1300
     21 C21       -12.0395   -0.8243   59.8424 C.3     1  ZINC000646817380   -0.1200
     22 C22       -13.2841   -1.0725   58.9634 C.3     1  ZINC000646817380   -0.0700
     23 C23       -14.1808    0.1672   58.9626 C.3     1  ZINC000646817380   -0.1600
     24 C24       -14.0617   -2.2822   59.4857 C.3     1  ZINC000646817380   -0.1400
     25 C25       -12.4095   -0.1833   55.3150 C.3     1  ZINC000646817380    0.0900
     26 N26        -8.3181   -0.2018   52.2437 N.2     1  ZINC000646817380   -0.3800
     27 O27        -7.2254    0.3149   52.2081 O.3     1  ZINC000646817380    0.1100
     28 H28        -4.2610    2.9506   51.8208 H       1  ZINC000646817380    0.0700
     29 H29        -4.7546    1.2444   51.7051 H       1  ZINC000646817380    0.0600
     30 H30        -5.6381    2.4904   50.7911 H       1  ZINC000646817380    0.0600
     31 H31        -5.5322    2.2537   53.8325 H       1  ZINC000646817380    0.1100
     32 H32        -7.0870    4.1312   51.9956 H       1  ZINC000646817380    0.0600
     33 H33        -7.2358    4.0542   53.7676 H       1  ZINC000646817380    0.0600
     34 H34        -5.7099    4.5915   53.0252 H       1  ZINC000646817380    0.0700
     35 H35        -8.8957    2.6450   53.6597 H       1  ZINC000646817380    0.1900
     36 H36       -10.8440   -0.5949   53.1880 H       1  ZINC000646817380    0.4300
     37 H37       -15.2851    0.8936   54.6932 H       1  ZINC000646817380    0.0800
     38 H38       -15.1031   -0.6553   53.8235 H       1  ZINC000646817380    0.0800
     39 H39       -15.4953   -0.4685   56.5718 H       1  ZINC000646817380    0.0900
     40 H40       -14.6520   -1.8426   55.7842 H       1  ZINC000646817380    0.0800
     41 H41       -10.7763   -2.0170   56.9612 H       1  ZINC000646817380    0.0700
     42 H42       -10.8913   -0.2655   57.3205 H       1  ZINC000646817380    0.0800
     43 H43       -10.9112   -2.6158   59.2933 H       1  ZINC000646817380    0.0700
     44 H44        -9.9271   -1.1163   59.3564 H       1  ZINC000646817380    0.0700
     45 H45       -12.1791   -1.2594   60.8321 H       1  ZINC000646817380    0.0700
     46 H46       -11.8333    0.2432   59.9197 H       1  ZINC000646817380    0.0700
     47 H47       -13.5611    1.0638   58.9426 H       1  ZINC000646817380    0.0700
     48 H48       -14.8235    0.1500   58.0825 H       1  ZINC000646817380    0.0600
     49 H49       -14.7964    0.1709   59.8621 H       1  ZINC000646817380    0.0500
     50 H50       -14.4014   -2.0845   60.5024 H       1  ZINC000646817380    0.0600
     51 H51       -14.9235   -2.4648   58.8438 H       1  ZINC000646817380    0.0500
     52 H52       -13.4144   -3.1591   59.4829 H       1  ZINC000646817380    0.0600
     53 H53       -12.0182   -1.1619   55.0370 H       1  ZINC000646817380    0.0900
     54 H54       -11.5927    0.5145   55.4987 H       1  ZINC000646817380    0.1000
@<TRIPOS>BOND
     1     1     2    1
     2     1    28    1
     3     1    29    1
     4     1    30    1
     5     2     3    1
     6     2     4    1
     7     2    31    1
     8     3    32    1
     9     3    33    1
    10     3    34    1
    11     4    27    1
    12     4     5    2
    13     5     6    1
    14     5    35    1
    15     6     7    1
    16     6    26    2
    17     7     8   am
    18     7    36    1
    19     8     9    2
    20     8    10    1
    21    10    11    2
    22    10    12   am
    23    12    25    1
    24    12    13    1
    25    13    14    1
    26    13    37    1
    27    13    38    1
    28    14    15    1
    29    14    39    1
    30    14    40    1
    31    15    16    1
    32    15    17    1
    33    15    25    1
    34    17    18    1
    35    17    22    1
    36    17    19    1
    37    19    20    1
    38    19    41    1
    39    19    42    1
    40    20    21    1
    41    20    43    1
    42    20    44    1
    43    21    22    1
    44    21    45    1
    45    21    46    1
    46    22    23    1
    47    22    24    1
    48    23    47    1
    49    23    48    1
    50    23    49    1
    51    24    50    1
    52    24    51    1
    53    24    52    1
    54    25    53    1
    55    25    54    1
    56    26    27    1
@<TRIPOS>SUBSTRUCTURE
     1 ZINC000646817380        1 TEMP              0 ****  ****    0 ROOT


##########                                Name:    ZINC000279974681
##########                DOCK_Rotatable_Bonds:                   4
##########                         Heavy_Atoms:                  23
##########                    Molecular_Weight:              338.79
##########                DOCK_Rotatable_Bonds:                   4
##########                       Formal_Charge:           0.0100008
##########                     HBond_Acceptors:                   7
##########                        HBond_Donors:                   1
##########                         Heavy_Atoms:                  23
##########                          Grid_Score:          -21.979246
##########                     Grid_vdw_energy:          -22.150238
##########                      Grid_es_energy:            0.170992
##########           Internal_energy_repulsive:           10.130270

@<TRIPOS>MOLECULE
ZINC000279974681
 42 45 1 0 0
SMALL
USER_CHARGES


@<TRIPOS>ATOM
      1 C1         -6.8997    4.4383   56.8402 C.3     1  ZINC000279974681   -0.1400
      2 C2         -7.8308    3.4167   56.1843 C.3     1  ZINC000279974681    0.0700
      3 H3         -8.8591    3.7745   56.2378 H       1  ZINC000279974681    0.0600
      4 C4         -7.7165    2.0752   56.9172 C.3     1  ZINC000279974681    0.1000
      5 N5         -8.4726    1.0661   56.1586 N.am    1  ZINC000279974681   -0.6300
      6 C6         -9.3786    0.2755   56.7675 C.2     1  ZINC000279974681    0.7100
      7 O7         -9.9933   -0.5526   56.1234 O.2     1  ZINC000279974681   -0.5600
      8 N8         -9.6030    0.4027   58.0904 N.am    1  ZINC000279974681   -0.6700
      9 C9        -10.5454   -0.4198   58.7236 C.ar    1  ZINC000279974681    0.2000
     10 C10       -11.8952   -0.1038   58.6621 C.ar    1  ZINC000279974681   -0.1200
     11 C11       -12.8259   -0.9169   59.2874 C.ar    1  ZINC000279974681    0.0700
     12 C12       -12.4051   -2.0509   59.9774 C.ar    1  ZINC000279974681    0.0200
     13 C13       -11.0565   -2.3634   60.0374 C.ar    1  ZINC000279974681   -0.0700
     14 C14       -10.1285   -1.5546   59.4081 C.ar    1  ZINC000279974681   -0.0700
     15 Cl15       -8.4398   -1.9493   59.4856 Cl      1  ZINC000279974681   -0.0500
     16 O16       -13.5021   -2.6761   60.4988 O.3     1  ZINC000279974681   -0.3000
     17 C17       -14.5549   -1.6944   60.4680 C.3     1  ZINC000279974681    0.2100
     18 O18       -14.1857   -0.8313   59.3762 O.3     1  ZINC000279974681   -0.3000
     19 C19        -8.2108    0.9460   54.7156 C.3     1  ZINC000279974681    0.0800
     20 C20        -8.3010    2.3426   54.0900 C.3     1  ZINC000279974681    0.1100
     21 H21        -9.3312    2.6959   54.1351 H       1  ZINC000279974681    0.0700
     22 C22        -7.8459    2.2792   52.6306 C.3     1  ZINC000279974681   -0.1600
     23 C23        -6.7548    3.2561   52.1877 C.3     1  ZINC000279974681   -0.1700
     24 C24        -6.4299    1.7702   52.3537 C.3     1  ZINC000279974681   -0.1600
     25 O25        -7.4573    3.2399   54.8157 O.3     1  ZINC000279974681   -0.3600
     26 H26        -6.9801    5.3915   56.3176 H       1  ZINC000279974681    0.0700
     27 H27        -7.1839    4.5713   57.8841 H       1  ZINC000279974681    0.0800
     28 H28        -5.8716    4.0800   56.7864 H       1  ZINC000279974681    0.0700
     29 H29        -6.6694    1.7790   56.9795 H       1  ZINC000279974681    0.0800
     30 H30        -8.1326    2.1683   57.9203 H       1  ZINC000279974681    0.1100
     31 H31        -9.1126    1.0632   58.6041 H       1  ZINC000279974681    0.4100
     32 H32       -12.2198    0.7764   58.1269 H       1  ZINC000279974681    0.1800
     33 H33       -10.7302   -3.2428   60.5728 H       1  ZINC000279974681    0.1500
     34 H34       -15.5160   -2.1697   60.2725 H       1  ZINC000279974681    0.1400
     35 H35       -14.5856   -1.1363   61.4039 H       1  ZINC000279974681    0.0900
     36 H36        -7.2135    0.5361   54.5563 H       1  ZINC000279974681    0.0900
     37 H37        -8.9542    0.2913   54.2609 H       1  ZINC000279974681    0.0900
     38 H38        -8.6214    2.0284   51.9068 H       1  ZINC000279974681    0.1100
     39 H39        -6.8123    3.6483   51.1724 H       1  ZINC000279974681    0.1000
     40 H40        -6.3611    3.9439   52.9360 H       1  ZINC000279974681    0.1000
     41 H41        -5.8225    1.4805   53.2112 H       1  ZINC000279974681    0.1000
     42 H42        -6.2737    1.1849   51.4476 H       1  ZINC000279974681    0.1000
@<TRIPOS>BOND
     1     1     2    1
     2     1    26    1
     3     1    27    1
     4     1    28    1
     5     2     3    1
     6     2    25    1
     7     2     4    1
     8     4     5    1
     9     4    29    1
    10     4    30    1
    11     5     6   am
    12     5    19    1
    13     6     7    2
    14     6     8   am
    15     8     9    1
    16     8    31    1
    17     9    14   ar
    18     9    10   ar
    19    10    11   ar
    20    10    32    1
    21    11    18    1
    22    11    12   ar
    23    12    13   ar
    24    12    16    1
    25    13    14   ar
    26    13    33    1
    27    14    15    1
    28    16    17    1
    29    17    18    1
    30    17    34    1
    31    17    35    1
    32    19    20    1
    33    19    36    1
    34    19    37    1
    35    20    21    1
    36    20    22    1
    37    20    25    1
    38    22    24    1
    39    22    23    1
    40    22    38    1
    41    23    24    1
    42    23    39    1
    43    23    40    1
    44    24    41    1
    45    24    42    1
@<TRIPOS>SUBSTRUCTURE
     1 ZINC000279974681        1 TEMP              0 ****  ****    0 ROOT


##########                                Name:    ZINC000535362552
##########                DOCK_Rotatable_Bonds:                   5
##########                         Heavy_Atoms:                  26
##########                    Molecular_Weight:             416.228
##########                DOCK_Rotatable_Bonds:                   5
##########                       Formal_Charge:         -0.00999981
##########                     HBond_Acceptors:                   6
##########                        HBond_Donors:                   1
##########                         Heavy_Atoms:                  26
##########                          Grid_Score:          -21.615074
##########                     Grid_vdw_energy:          -21.695183
##########                      Grid_es_energy:            0.080109
##########           Internal_energy_repulsive:           17.263124

@<TRIPOS>MOLECULE
ZINC000535362552
 40 43 1 0 0
SMALL
USER_CHARGES


@<TRIPOS>ATOM
      1 C1         -5.1161    1.5608   51.8902 C.3     1  ZINC000535362552    0.0300
      2 O2         -4.7056    2.5825   52.8365 O.3     1  ZINC000535362552   -0.3400
      3 C3         -5.5171    2.8020   53.8911 C.2     1  ZINC000535362552    0.5500
      4 O4         -5.2817    3.7142   54.6597 O.2     1  ZINC000535362552   -0.4800
      5 C5         -6.6846    1.9396   54.1109 C.2     1  ZINC000535362552   -0.0100
      6 C6         -7.2590    1.6937   55.3178 C.2     1  ZINC000535362552   -0.0900
      7 C7         -8.3792    0.7907   55.0566 C.ar    1  ZINC000535362552   -0.1300
      8 C8         -9.3434    0.1801   55.8619 C.ar    1  ZINC000535362552   -0.0600
      9 C9        -10.2922   -0.6424   55.2841 C.ar    1  ZINC000535362552    0.1200
     10 N10       -11.2635   -1.2585   56.0843 N.am    1  ZINC000535362552   -0.6700
     11 C11       -12.5603   -0.9152   55.9545 C.2     1  ZINC000535362552    0.5200
     12 O12       -12.8867   -0.0730   55.1450 O.2     1  ZINC000535362552   -0.5000
     13 C13       -13.6049   -1.5780   56.8150 C.3     1  ZINC000535362552   -0.1000
     14 H14       -14.5731   -1.5834   56.3143 H       1  ZINC000535362552    0.1300
     15 C15       -13.1742   -3.0128   57.2011 C.3     1  ZINC000535362552    0.0600
     16 O16       -13.6661   -3.1419   58.5458 O.3     1  ZINC000535362552   -0.2900
     17 C17       -13.7137   -1.9111   59.1261 C.ar    1  ZINC000535362552    0.1300
     18 C18       -13.7730   -1.5604   60.4723 C.ar    1  ZINC000535362552   -0.1300
     19 C19       -13.8238   -0.2324   60.8431 C.ar    1  ZINC000535362552   -0.0500
     20 C20       -13.8167    0.7621   59.8818 C.ar    1  ZINC000535362552   -0.1200
     21 Br21      -13.8920    2.5802   60.3965 Br      1  ZINC000535362552   -0.0400
     22 C22       -13.7538    0.4214   58.5411 C.ar    1  ZINC000535362552   -0.0100
     23 C23       -13.6991   -0.9028   58.1696 C.ar    1  ZINC000535362552   -0.1600
     24 C24       -10.2854   -0.8599   53.9073 C.ar    1  ZINC000535362552   -0.0900
     25 C25        -9.3380   -0.2623   53.1061 C.ar    1  ZINC000535362552   -0.0900
     26 C26        -8.3752    0.5688   53.6665 C.ar    1  ZINC000535362552    0.0700
     27 O27        -7.3530    1.2761   53.1445 O.3     1  ZINC000535362552   -0.1700
     28 H28        -6.0835    1.8274   51.4646 H       1  ZINC000535362552    0.0700
     29 H29        -4.3767    1.4860   51.0928 H       1  ZINC000535362552    0.1100
     30 H30        -5.1963    0.6022   52.4025 H       1  ZINC000535362552    0.0700
     31 H31        -6.9502    2.0851   56.2758 H       1  ZINC000535362552    0.1800
     32 H32        -9.3473    0.3493   56.9285 H       1  ZINC000535362552    0.1400
     33 H33       -11.0024   -1.9322   56.7315 H       1  ZINC000535362552    0.4100
     34 H34       -13.6439   -3.7465   56.5460 H       1  ZINC000535362552    0.1200
     35 H35       -12.0887   -3.1101   57.1759 H       1  ZINC000535362552    0.0900
     36 H36       -13.7791   -2.3309   61.2292 H       1  ZINC000535362552    0.1400
     37 H37       -13.8696    0.0319   61.8892 H       1  ZINC000535362552    0.1400
     38 H38       -13.7481    1.1944   57.7869 H       1  ZINC000535362552    0.1400
     39 H39       -11.0306   -1.5042   53.4644 H       1  ZINC000535362552    0.1500
     40 H40        -9.3433   -0.4396   52.0408 H       1  ZINC000535362552    0.1500
@<TRIPOS>BOND
     1     1     2    1
     2     1    28    1
     3     1    29    1
     4     1    30    1
     5     2     3    1
     6     3     4    2
     7     3     5    1
     8     5    27    1
     9     5     6    2
    10     6     7    1
    11     6    31    1
    12     7    26   ar
    13     7     8   ar
    14     8     9   ar
    15     8    32    1
    16     9    10    1
    17     9    24   ar
    18    10    11   am
    19    10    33    1
    20    11    12    2
    21    11    13    1
    22    13    14    1
    23    13    23    1
    24    13    15    1
    25    15    16    1
    26    15    34    1
    27    15    35    1
    28    16    17    1
    29    17    23   ar
    30    17    18   ar
    31    18    19   ar
    32    18    36    1
    33    19    20   ar
    34    19    37    1
    35    20    21    1
    36    20    22   ar
    37    22    23   ar
    38    22    38    1
    39    24    25   ar
    40    24    39    1
    41    25    26   ar
    42    25    40    1
    43    26    27    1
@<TRIPOS>SUBSTRUCTURE
     1 ZINC000535362552        1 TEMP              0 ****  ****    0 ROOT


##########                                Name:    ZINC000054627026
##########                DOCK_Rotatable_Bonds:                   5
##########                         Heavy_Atoms:                  28
##########                    Molecular_Weight:              370.37
##########                DOCK_Rotatable_Bonds:                   5
##########                       Formal_Charge:         6.85453e-07
##########                     HBond_Acceptors:                   8
##########                        HBond_Donors:                   2
##########                         Heavy_Atoms:                  28
##########                          Grid_Score:          -21.539036
##########                     Grid_vdw_energy:          -20.356335
##########                      Grid_es_energy:           -1.182701
##########           Internal_energy_repulsive:            5.011804

@<TRIPOS>MOLECULE
ZINC000054627026
 42 46 1 0 0
SMALL
USER_CHARGES


@<TRIPOS>ATOM
      1 O1         -7.1174    0.9320   57.7644 O.2     1  ZINC000054627026   -0.5200
      2 C2         -8.0184    1.4476   57.1311 C.2     1  ZINC000054627026    0.6100
      3 N3         -9.1924    1.7242   57.7325 N.am    1  ZINC000054627026   -0.6500
      4 C4         -9.3766    1.4124   59.0854 C.ar    1  ZINC000054627026    0.1400
      5 C5         -9.4127    0.0798   59.4903 C.ar    1  ZINC000054627026   -0.0900
      6 C6         -9.5932   -0.2408   60.8189 C.ar    1  ZINC000054627026   -0.0900
      7 C7         -9.7400    0.7669   61.7611 C.ar    1  ZINC000054627026    0.0500
      8 N8         -9.9317    0.7748   63.1318 N.pl3   1  ZINC000054627026   -0.5900
      9 C9        -10.0065    2.0868   63.5222 C.2     1  ZINC000054627026    0.3700
     10 C10       -10.2063    2.5488   64.9037 C.2     1  ZINC000054627026    0.0200
     11 C11        -9.5662    3.5950   65.4985 C.2     1  ZINC000054627026   -0.1200
     12 C12       -10.0619    3.6789   66.8121 C.2     1  ZINC000054627026   -0.2200
     13 C13       -10.9705    2.6919   66.9565 C.2     1  ZINC000054627026   -0.0100
     14 O14       -11.0588    2.0152   65.8014 O.3     1  ZINC000054627026   -0.1700
     15 N15        -9.8722    2.8689   62.4751 N.2     1  ZINC000054627026   -0.4600
     16 C16        -9.7049    2.1150   61.3617 C.ar    1  ZINC000054627026    0.0700
     17 C17        -9.5161    2.4287   60.0120 C.ar    1  ZINC000054627026   -0.0900
     18 C18        -7.8243    1.7760   55.7063 C.2     1  ZINC000054627026   -0.1000
     19 C19        -8.6613    2.5381   54.9413 C.2     1  ZINC000054627026    0.1000
     20 N20        -8.1197    2.5915   53.7049 N.pl3   1  ZINC000054627026   -0.3100
     21 C21        -8.6406    3.2671   52.5921 C.ar    1  ZINC000054627026    0.1300
     22 C22        -9.8275    3.9787   52.7033 C.ar    1  ZINC000054627026   -0.1200
     23 C23       -10.3378    4.6437   51.6056 C.ar    1  ZINC000054627026   -0.1000
     24 C24        -9.6681    4.6009   50.3965 C.ar    1  ZINC000054627026   -0.1100
     25 C25        -8.4859    3.8926   50.2826 C.ar    1  ZINC000054627026   -0.1000
     26 C26        -7.9675    3.2308   51.3784 C.ar    1  ZINC000054627026   -0.1000
     27 N27        -6.9360    1.8412   53.7490 N.2     1  ZINC000054627026   -0.0500
     28 N28        -6.7910    1.3809   54.9426 N.2     1  ZINC000054627026   -0.2000
     29 H29        -9.9097    2.1393   57.2284 H       1  ZINC000054627026    0.4200
     30 H30        -9.2991   -0.7066   58.7590 H       1  ZINC000054627026    0.1500
     31 H31        -9.6205   -1.2759   61.1261 H       1  ZINC000054627026    0.1300
     32 H32       -10.0008   -0.0024   63.7081 H       1  ZINC000054627026    0.4300
     33 H33        -8.8219    4.2353   65.0484 H       1  ZINC000054627026    0.1600
     34 H34        -9.7700    4.3975   67.5637 H       1  ZINC000054627026    0.1600
     35 H35       -11.5359    2.4834   67.8528 H       1  ZINC000054627026    0.2100
     36 H36        -9.4822    3.4605   59.6945 H       1  ZINC000054627026    0.1400
     37 H37        -9.5793    3.0073   55.2629 H       1  ZINC000054627026    0.2100
     38 H38       -10.3514    4.0120   53.6471 H       1  ZINC000054627026    0.1400
     39 H39       -11.2611    5.1974   51.6915 H       1  ZINC000054627026    0.1400
     40 H40       -10.0692    5.1213   49.5395 H       1  ZINC000054627026    0.1400
     41 H41        -7.9653    3.8607   49.3370 H       1  ZINC000054627026    0.1400
     42 H42        -7.0441    2.6777   51.2888 H       1  ZINC000054627026    0.1400
@<TRIPOS>BOND
     1     1     2    2
     2     2     3   am
     3     2    18    1
     4     3     4    1
     5     3    29    1
     6     4    17   ar
     7     4     5   ar
     8     5     6   ar
     9     5    30    1
    10     6     7   ar
    11     6    31    1
    12     7    16   ar
    13     7     8    1
    14     8     9    1
    15     8    32    1
    16     9    10    1
    17     9    15    2
    18    10    14    1
    19    10    11    2
    20    11    12    1
    21    11    33    1
    22    12    13    2
    23    12    34    1
    24    13    14    1
    25    13    35    1
    26    15    16    1
    27    16    17   ar
    28    17    36    1
    29    18    28    1
    30    18    19    2
    31    19    20    1
    32    19    37    1
    33    20    21    1
    34    20    27    1
    35    21    26   ar
    36    21    22   ar
    37    22    23   ar
    38    22    38    1
    39    23    24   ar
    40    23    39    1
    41    24    25   ar
    42    24    40    1
    43    25    26   ar
    44    25    41    1
    45    26    42    1
    46    27    28    2
@<TRIPOS>SUBSTRUCTURE
     1 ZINC000054627026        1 TEMP              0 ****  ****    0 ROOT


##########                                Name:    ZINC000648570180
##########                DOCK_Rotatable_Bonds:                   4
##########                         Heavy_Atoms:                  25
##########                    Molecular_Weight:             342.484
##########                DOCK_Rotatable_Bonds:                   4
##########                       Formal_Charge:          0.00999971
##########                     HBond_Acceptors:                   5
##########                        HBond_Donors:                   0
##########                         Heavy_Atoms:                  25
##########                          Grid_Score:          -21.495031
##########                     Grid_vdw_energy:          -19.756029
##########                      Grid_es_energy:           -1.739002
##########           Internal_energy_repulsive:           81.196007

@<TRIPOS>MOLECULE
ZINC000648570180
 55 58 1 0 0
SMALL
USER_CHARGES


@<TRIPOS>ATOM
      1 C1        -12.7965    1.7845   61.5882 C.3     1  ZINC000648570180   -0.1500
      2 C2        -11.9550    2.7129   62.4662 C.3     1  ZINC000648570180   -0.0600
      3 C3        -12.6627    4.0590   62.6337 C.3     1  ZINC000648570180   -0.1400
      4 C4        -11.7176    2.0642   63.8456 C.3     1  ZINC000648570180   -0.1200
      5 C5        -10.2694    2.4726   64.2131 C.3     1  ZINC000648570180   -0.1300
      6 C6         -9.5356    2.3929   62.8513 C.3     1  ZINC000648570180   -0.1200
      7 C7        -10.5677    2.9219   61.8341 C.3     1  ZINC000648570180   -0.0700
      8 H8        -10.3984    3.9824   61.6475 H       1  ZINC000648570180    0.0800
      9 C9        -10.4634    2.1367   60.5251 C.3     1  ZINC000648570180   -0.1000
     10 H10       -10.9089    1.1473   60.6289 H       1  ZINC000648570180    0.1000
     11 C11       -11.1136    2.9193   59.3537 C.3     1  ZINC000648570180   -0.1400
     12 C12       -10.3562    2.3863   58.1193 C.3     1  ZINC000648570180    0.1200
     13 N13        -9.0749    1.8436   58.5942 N.am    1  ZINC000648570180   -0.6000
     14 C14        -8.1325    1.2660   57.8231 C.2     1  ZINC000648570180    0.5800
     15 O15        -7.1076    0.8502   58.3255 O.2     1  ZINC000648570180   -0.5200
     16 C16        -8.3468    1.1379   56.3595 C.ar    1  ZINC000648570180    0.1600
     17 C17        -9.0499    0.0516   55.8394 C.ar    1  ZINC000648570180   -0.2000
     18 C18        -9.2254   -0.0248   54.4645 C.ar    1  ZINC000648570180    0.1800
     19 N19        -8.7251    0.9262   53.6962 N.ar    1  ZINC000648570180   -0.5400
     20 C20        -8.0609    1.9473   54.2199 C.ar    1  ZINC000648570180    0.4800
     21 N21        -7.5525    2.9229   53.3796 N.3     1  ZINC000648570180   -0.4400
     22 C22        -6.1736    3.3039   53.7792 C.3     1  ZINC000648570180    0.0500
     23 C23        -5.5988    3.9528   52.4949 C.3     1  ZINC000648570180   -0.1200
     24 C24        -6.2017    3.0823   51.3684 C.3     1  ZINC000648570180   -0.1300
     25 C25        -7.4467    2.4241   51.9912 C.3     1  ZINC000648570180    0.0400
     26 N26        -7.8757    2.0608   55.5246 N.ar    1  ZINC000648570180   -0.5000
     27 C27        -8.9912    2.0360   60.0538 C.3     1  ZINC000648570180    0.1100
     28 H28       -12.2369    0.8717   61.3839 H       1  ZINC000648570180    0.0600
     29 H29       -13.7222    1.5347   62.1066 H       1  ZINC000648570180    0.0500
     30 H30       -13.0298    2.2856   60.6488 H       1  ZINC000648570180    0.0700
     31 H31       -13.6387    3.9017   63.0931 H       1  ZINC000648570180    0.0500
     32 H32       -12.0620    4.7085   63.2704 H       1  ZINC000648570180    0.0500
     33 H33       -12.7918    4.5257   61.6573 H       1  ZINC000648570180    0.0500
     34 H34       -12.4224    2.4572   64.5783 H       1  ZINC000648570180    0.0600
     35 H35       -11.8023    0.9797   63.7767 H       1  ZINC000648570180    0.0700
     36 H36       -10.2428    3.4885   64.6075 H       1  ZINC000648570180    0.0700
     37 H37        -9.8387    1.7691   64.9257 H       1  ZINC000648570180    0.0700
     38 H38        -8.6482    3.0258   62.8586 H       1  ZINC000648570180    0.0700
     39 H39        -9.2681    1.3615   62.6220 H       1  ZINC000648570180    0.0700
     40 H40       -12.1772    2.6920   59.2814 H       1  ZINC000648570180    0.0900
     41 H41       -10.9543    3.9912   59.4708 H       1  ZINC000648570180    0.0800
     42 H42       -10.9372    1.5988   57.6394 H       1  ZINC000648570180    0.0800
     43 H43       -10.1765    3.1988   57.4153 H       1  ZINC000648570180    0.0700
     44 H44        -9.4481   -0.7123   56.4909 H       1  ZINC000648570180    0.1600
     45 H45        -9.7645   -0.8525   54.0279 H       1  ZINC000648570180    0.1800
     46 H46        -6.1952    4.0238   54.5974 H       1  ZINC000648570180    0.1000
     47 H47        -5.5960    2.4221   54.0564 H       1  ZINC000648570180    0.0500
     48 H48        -5.9312    4.9867   52.4032 H       1  ZINC000648570180    0.0800
     49 H49        -4.5105    3.8941   52.4871 H       1  ZINC000648570180    0.0800
     50 H50        -6.4873    3.7053   50.5207 H       1  ZINC000648570180    0.0800
     51 H51        -5.4876    2.3207   51.0555 H       1  ZINC000648570180    0.0700
     52 H52        -7.3316    1.3403   51.9939 H       1  ZINC000648570180    0.0900
     53 H53        -8.3364    2.7043   51.4273 H       1  ZINC000648570180    0.0900
     54 H54        -8.4558    2.9569   60.2849 H       1  ZINC000648570180    0.0700
     55 H55        -8.4995    1.1830   60.5214 H       1  ZINC000648570180    0.0800
@<TRIPOS>BOND
     1     1     2    1
     2     1    28    1
     3     1    29    1
     4     1    30    1
     5     2     7    1
     6     2     3    1
     7     2     4    1
     8     3    31    1
     9     3    32    1
    10     3    33    1
    11     4     5    1
    12     4    34    1
    13     4    35    1
    14     5     6    1
    15     5    36    1
    16     5    37    1
    17     6     7    1
    18     6    38    1
    19     6    39    1
    20     7     8    1
    21     7     9    1
    22     9    10    1
    23     9    27    1
    24     9    11    1
    25    11    12    1
    26    11    40    1
    27    11    41    1
    28    12    13    1
    29    12    42    1
    30    12    43    1
    31    13    14   am
    32    13    27    1
    33    14    15    2
    34    14    16    1
    35    16    26   ar
    36    16    17   ar
    37    17    18   ar
    38    17    44    1
    39    18    19   ar
    40    18    45    1
    41    19    20   ar
    42    20    21    1
    43    20    26   ar
    44    21    25    1
    45    21    22    1
    46    22    23    1
    47    22    46    1
    48    22    47    1
    49    23    24    1
    50    23    48    1
    51    23    49    1
    52    24    25    1
    53    24    50    1
    54    24    51    1
    55    25    52    1
    56    25    53    1
    57    27    54    1
    58    27    55    1
@<TRIPOS>SUBSTRUCTURE
     1 ZINC000648570180        1 TEMP              0 ****  ****    0 ROOT


##########                                Name:    ZINC000506388363
##########                DOCK_Rotatable_Bonds:                   5
##########                         Heavy_Atoms:                  29
##########                    Molecular_Weight:             416.858
##########                DOCK_Rotatable_Bonds:                   5
##########                       Formal_Charge:         7.07805e-07
##########                     HBond_Acceptors:                   8
##########                        HBond_Donors:                   1
##########                         Heavy_Atoms:                  29
##########                          Grid_Score:          -21.460680
##########                     Grid_vdw_energy:          -20.770721
##########                      Grid_es_energy:           -0.689959
##########           Internal_energy_repulsive:           31.540319

@<TRIPOS>MOLECULE
ZINC000506388363
 48 51 1 0 0
SMALL
USER_CHARGES


@<TRIPOS>ATOM
      1 O1        -11.4767    0.6898   62.4472 O.2     1  ZINC000506388363   -0.5300
      2 C2        -10.9769    0.4003   61.3777 C.2     1  ZINC000506388363    0.5600
      3 C3        -11.5535   -0.6908   60.5635 C.ar    1  ZINC000506388363   -0.1200
      4 C4        -12.9304   -0.7483   60.3432 C.ar    1  ZINC000506388363   -0.0900
      5 C5        -13.4628   -1.7687   59.5821 C.ar    1  ZINC000506388363   -0.1100
      6 C6        -12.6353   -2.7342   59.0380 C.ar    1  ZINC000506388363   -0.0900
      7 C7        -11.2681   -2.6837   59.2525 C.ar    1  ZINC000506388363   -0.0400
      8 Cl8       -10.2377   -3.8999   58.5650 Cl      1  ZINC000506388363   -0.0600
      9 C9        -10.7224   -1.6646   60.0073 C.ar    1  ZINC000506388363   -0.0600
     10 N10        -9.9004    1.0776   60.9315 N.am    1  ZINC000506388363   -0.6100
     11 C11        -9.2876    0.7515   59.6348 C.3     1  ZINC000506388363    0.1000
     12 C12        -9.1454    2.0445   58.8248 C.3     1  ZINC000506388363    0.0400
     13 N13        -8.4181    3.0408   59.6226 N.3     1  ZINC000506388363   -0.5300
     14 C14        -8.1101    4.2332   58.8219 C.3     1  ZINC000506388363    0.1200
     15 C15        -6.9549    3.9353   57.9010 C.2     1  ZINC000506388363   -0.2100
     16 C16        -5.6480    4.1457   58.1705 C.2     1  ZINC000506388363    0.0600
     17 N17        -4.9320    3.7508   57.0959 N.pl3   1  ZINC000506388363   -0.4700
     18 N18        -5.8255    3.2790   56.1259 N.2     1  ZINC000506388363   -0.2700
     19 C19        -7.0456    3.3824   56.6087 C.2     1  ZINC000506388363    0.1300
     20 C20        -8.2964    2.9949   55.9106 C.ar    1  ZINC000506388363   -0.0700
     21 C21        -8.5784    1.6493   55.6736 C.ar    1  ZINC000506388363    0.1500
     22 F22        -7.7132    0.6945   56.0796 F       1  ZINC000506388363   -0.1200
     23 C23        -9.7457    1.2952   55.0226 C.ar    1  ZINC000506388363   -0.1600
     24 C24       -10.6327    2.2712   54.6068 C.ar    1  ZINC000506388363   -0.0500
     25 C25       -10.3591    3.6068   54.8387 C.ar    1  ZINC000506388363   -0.1600
     26 C26        -9.1982    3.9742   55.4937 C.ar    1  ZINC000506388363    0.1600
     27 F27        -8.9322    5.2794   55.7195 F       1  ZINC000506388363   -0.1200
     28 C28        -9.1643    3.3997   60.8359 C.3     1  ZINC000506388363    0.0400
     29 C29        -9.3112    2.1663   61.7256 C.3     1  ZINC000506388363    0.1200
     30 H30       -13.5780    0.0045   60.7679 H       1  ZINC000506388363    0.1400
     31 H31       -14.5282   -1.8136   59.4112 H       1  ZINC000506388363    0.1400
     32 H32       -13.0573   -3.5312   58.4438 H       1  ZINC000506388363    0.1400
     33 H33        -9.6561   -1.6255   60.1739 H       1  ZINC000506388363    0.1400
     34 H34        -8.3041    0.3099   59.7954 H       1  ZINC000506388363    0.0800
     35 H35        -9.9236    0.0496   59.0955 H       1  ZINC000506388363    0.1000
     36 H36        -8.5935    1.8400   57.9073 H       1  ZINC000506388363    0.0900
     37 H37       -10.1346    2.4290   58.5768 H       1  ZINC000506388363    0.0400
     38 H38        -8.9834    4.5099   58.2313 H       1  ZINC000506388363    0.1000
     39 H39        -7.8436    5.0568   59.4843 H       1  ZINC000506388363    0.0400
     40 H40        -5.2465    4.5577   59.0845 H       1  ZINC000506388363    0.1800
     41 H41        -3.9664    3.7879   57.0104 H       1  ZINC000506388363    0.4400
     42 H42        -9.9650    0.2538   54.8382 H       1  ZINC000506388363    0.1500
     43 H43       -11.5428    1.9893   54.0985 H       1  ZINC000506388363    0.1500
     44 H44       -11.0557    4.3643   54.5111 H       1  ZINC000506388363    0.1500
     45 H45        -8.6262    4.1781   61.3769 H       1  ZINC000506388363    0.0900
     46 H46       -10.1533    3.7653   60.5598 H       1  ZINC000506388363    0.0400
     47 H47        -9.9603    2.3989   62.5697 H       1  ZINC000506388363    0.1000
     48 H48        -8.3306    1.8577   62.0883 H       1  ZINC000506388363    0.0800
@<TRIPOS>BOND
     1     1     2    2
     2     2     3    1
     3     2    10   am
     4     3     9   ar
     5     3     4   ar
     6     4     5   ar
     7     4    30    1
     8     5     6   ar
     9     5    31    1
    10     6     7   ar
    11     6    32    1
    12     7     8    1
    13     7     9   ar
    14     9    33    1
    15    10    29    1
    16    10    11    1
    17    11    12    1
    18    11    34    1
    19    11    35    1
    20    12    13    1
    21    12    36    1
    22    12    37    1
    23    13    14    1
    24    13    28    1
    25    14    15    1
    26    14    38    1
    27    14    39    1
    28    15    19    1
    29    15    16    2
    30    16    17    1
    31    16    40    1
    32    17    18    1
    33    17    41    1
    34    18    19    2
    35    19    20    1
    36    20    26   ar
    37    20    21   ar
    38    21    22    1
    39    21    23   ar
    40    23    24   ar
    41    23    42    1
    42    24    25   ar
    43    24    43    1
    44    25    26   ar
    45    25    44    1
    46    26    27    1
    47    28    29    1
    48    28    45    1
    49    28    46    1
    50    29    47    1
    51    29    48    1
@<TRIPOS>SUBSTRUCTURE
     1 ZINC000506388363        1 TEMP              0 ****  ****    0 ROOT


##########                                Name:    ZINC000931749147
##########                DOCK_Rotatable_Bonds:                   5
##########                         Heavy_Atoms:                  25
##########                    Molecular_Weight:             354.397
##########                DOCK_Rotatable_Bonds:                   5
##########                       Formal_Charge:        -4.76837e-07
##########                     HBond_Acceptors:                   7
##########                        HBond_Donors:                   1
##########                         Heavy_Atoms:                  25
##########                          Grid_Score:          -21.170929
##########                     Grid_vdw_energy:          -20.485004
##########                      Grid_es_energy:           -0.685924
##########           Internal_energy_repulsive:           83.573761

@<TRIPOS>MOLECULE
ZINC000931749147
 49 51 1 0 0
SMALL
USER_CHARGES


@<TRIPOS>ATOM
      1 C1        -14.2067    0.1812   60.8388 C.3     1  ZINC000931749147   -0.1100
      2 C2        -12.9566    0.6190   61.5576 C.ar    1  ZINC000931749147   -0.1300
      3 C3        -11.7299    0.0654   61.2178 C.ar    1  ZINC000931749147    0.1800
      4 N4        -11.6527   -0.9004   60.2065 N.am    1  ZINC000931749147   -0.6800
      5 C5        -11.5562   -0.5199   58.9172 C.2     1  ZINC000931749147    0.7100
      6 O6        -11.5362    0.6620   58.6321 O.2     1  ZINC000931749147   -0.5500
      7 N7        -11.4819   -1.4492   57.9440 N.am    1  ZINC000931749147   -0.6200
      8 C8        -11.5043   -2.8852   58.2646 C.3     1  ZINC000931749147    0.0700
      9 C9        -10.3242   -3.5577   57.5539 C.3     1  ZINC000931749147    0.0500
     10 O10       -10.3543   -3.2165   56.1659 O.3     1  ZINC000931749147   -0.3700
     11 C11       -10.2028   -1.8194   55.9032 C.3     1  ZINC000931749147    0.0500
     12 C12       -11.3823   -1.0580   56.5289 C.3     1  ZINC000931749147    0.1300
     13 H13       -12.3036   -1.3141   56.0058 H       1  ZINC000931749147    0.0900
     14 C14       -11.1346    0.4485   56.4285 C.3     1  ZINC000931749147   -0.1100
     15 C15       -10.7962    0.8143   54.9819 C.3     1  ZINC000931749147   -0.1000
     16 C16       -12.0102    0.5441   54.0876 C.3     1  ZINC000931749147   -0.1500
     17 C17       -11.6893    0.9863   52.6576 C.3     1  ZINC000931749147    0.0600
     18 O18       -11.3330    2.3703   52.6569 O.3     1  ZINC000931749147   -0.3800
     19 C19       -10.1763    2.6754   53.4386 C.3     1  ZINC000931749147    0.0600
     20 C20       -10.4364    2.3011   54.9001 C.3     1  ZINC000931749147   -0.1500
     21 C21       -10.5794    0.4704   61.8815 C.ar    1  ZINC000931749147   -0.1200
     22 C22       -10.6563    1.4233   62.8785 C.ar    1  ZINC000931749147   -0.1100
     23 C23       -11.8796    1.9755   63.2173 C.ar    1  ZINC000931749147    0.0500
     24 F24       -11.9524    2.9074   64.1927 F       1  ZINC000931749147   -0.1300
     25 C25       -13.0296    1.5773   62.5525 C.ar    1  ZINC000931749147    0.0900
     26 F26       -14.2228    2.1171   62.8842 F       1  ZINC000931749147   -0.1200
     27 H27       -14.3641    0.8137   59.9653 H       1  ZINC000931749147    0.0800
     28 H28       -14.0991   -0.8561   60.5218 H       1  ZINC000931749147    0.0700
     29 H29       -15.0612    0.2691   61.5099 H       1  ZINC000931749147    0.0800
     30 H30       -11.6687   -1.8433   60.4340 H       1  ZINC000931749147    0.4100
     31 H31       -11.4104   -3.0223   59.3419 H       1  ZINC000931749147    0.0800
     32 H32       -12.4399   -3.3242   57.9182 H       1  ZINC000931749147    0.0900
     33 H33        -9.3890   -3.2113   57.9938 H       1  ZINC000931749147    0.0600
     34 H34       -10.4009   -4.6393   57.6647 H       1  ZINC000931749147    0.1100
     35 H35        -9.2671   -1.4668   56.3370 H       1  ZINC000931749147    0.0600
     36 H36       -10.1922   -1.6505   54.8264 H       1  ZINC000931749147    0.1100
     37 H37       -12.0308    0.9856   56.7390 H       1  ZINC000931749147    0.1100
     38 H38       -10.3029    0.7240   57.0770 H       1  ZINC000931749147    0.0700
     39 H39        -9.9511    0.2154   54.6425 H       1  ZINC000931749147    0.0700
     40 H40       -12.2391   -0.5215   54.0966 H       1  ZINC000931749147    0.0700
     41 H41       -12.8679    1.1051   54.4586 H       1  ZINC000931749147    0.0700
     42 H42       -10.8571    0.3967   52.2728 H       1  ZINC000931749147    0.0500
     43 H43       -12.5645    0.8360   52.0255 H       1  ZINC000931749147    0.0900
     44 H44        -9.3245    2.1079   53.0640 H       1  ZINC000931749147    0.0500
     45 H45        -9.9616    3.7419   53.3692 H       1  ZINC000931749147    0.0900
     46 H46       -11.2625    2.8975   55.2874 H       1  ZINC000931749147    0.0700
     47 H47        -9.5400    2.4919   55.4901 H       1  ZINC000931749147    0.0700
     48 H48        -9.6244    0.0401   61.6183 H       1  ZINC000931749147    0.1800
     49 H49        -9.7611    1.7377   63.3945 H       1  ZINC000931749147    0.1500
@<TRIPOS>BOND
     1     1     2    1
     2     1    27    1
     3     1    28    1
     4     1    29    1
     5     2    25   ar
     6     2     3   ar
     7     3     4    1
     8     3    21   ar
     9     4     5   am
    10     4    30    1
    11     5     6    2
    12     5     7   am
    13     7    12    1
    14     7     8    1
    15     8     9    1
    16     8    31    1
    17     8    32    1
    18     9    10    1
    19     9    33    1
    20     9    34    1
    21    10    11    1
    22    11    12    1
    23    11    35    1
    24    11    36    1
    25    12    13    1
    26    12    14    1
    27    14    15    1
    28    14    37    1
    29    14    38    1
    30    15    20    1
    31    15    16    1
    32    15    39    1
    33    16    17    1
    34    16    40    1
    35    16    41    1
    36    17    18    1
    37    17    42    1
    38    17    43    1
    39    18    19    1
    40    19    20    1
    41    19    44    1
    42    19    45    1
    43    20    46    1
    44    20    47    1
    45    21    22   ar
    46    21    48    1
    47    22    23   ar
    48    22    49    1
    49    23    24    1
    50    23    25   ar
    51    25    26    1
@<TRIPOS>SUBSTRUCTURE
     1 ZINC000931749147        1 TEMP              0 ****  ****    0 ROOT


##########                                Name:    ZINC000541315701
##########                DOCK_Rotatable_Bonds:                   4
##########                         Heavy_Atoms:                  25
##########                    Molecular_Weight:             422.709
##########                DOCK_Rotatable_Bonds:                   4
##########                       Formal_Charge:           0.0300003
##########                     HBond_Acceptors:                   6
##########                        HBond_Donors:                   0
##########                         Heavy_Atoms:                  25
##########                          Grid_Score:          -20.846148
##########                     Grid_vdw_energy:          -20.064970
##########                      Grid_es_energy:           -0.781178
##########           Internal_energy_repulsive:           15.202729

@<TRIPOS>MOLECULE
ZINC000541315701
 42 44 1 0 0
SMALL
USER_CHARGES


@<TRIPOS>ATOM
      1 C1         -8.2313    1.3287   53.7455 C.3     1  ZINC000541315701    0.0800
      2 N2         -9.3418    0.9493   54.6224 N.am    1  ZINC000541315701   -0.5700
      3 C3         -9.0919    0.3875   55.8217 C.2     1  ZINC000541315701    0.5400
      4 O4         -7.9477    0.1962   56.1751 O.2     1  ZINC000541315701   -0.5000
      5 C5        -10.2344   -0.0029   56.7236 C.3     1  ZINC000541315701   -0.1100
      6 H6        -11.0704    0.6877   56.6119 H       1  ZINC000541315701    0.1300
      7 C7        -10.6796   -1.4589   56.4541 C.3     1  ZINC000541315701   -0.1500
      8 C8         -9.8915   -2.2785   57.4521 C.2     1  ZINC000541315701    0.5200
      9 O9         -9.7332   -3.4795   57.3936 O.2     1  ZINC000541315701   -0.5200
     10 N10        -9.3920   -1.4819   58.4126 N.am    1  ZINC000541315701   -0.6100
     11 C11        -8.5712   -1.9512   59.5316 C.3     1  ZINC000541315701    0.0900
     12 C12        -9.7745   -0.0806   58.1963 C.3     1  ZINC000541315701    0.1900
     13 H13        -8.9181    0.5737   58.3595 H       1  ZINC000541315701    0.1100
     14 C14       -10.9038    0.3001   59.1187 C.ar    1  ZINC000541315701   -0.0900
     15 C15       -10.9305    1.5553   59.6967 C.ar    1  ZINC000541315701   -0.1000
     16 C16       -11.9665    1.9056   60.5428 C.ar    1  ZINC000541315701   -0.1000
     17 C17       -12.9756    1.0005   60.8114 C.ar    1  ZINC000541315701   -0.1000
     18 C18       -12.9494   -0.2563   60.2330 C.ar    1  ZINC000541315701   -0.0300
     19 Cl19      -14.2171   -1.3936   60.5693 Cl      1  ZINC000541315701   -0.0600
     20 C20       -11.9157   -0.6041   59.3821 C.ar    1  ZINC000541315701   -0.0900
     21 C21       -10.6574    1.1692   54.2160 C.ar    1  ZINC000541315701    0.3800
     22 N22       -11.3173    0.2118   53.5843 N.ar    1  ZINC000541315701   -0.4700
     23 C23       -12.5632    0.3783   53.1832 C.ar    1  ZINC000541315701    0.1300
     24 C24       -13.2277    1.5670   53.4103 C.ar    1  ZINC000541315701   -0.1600
     25 C25       -12.5714    2.5974   54.0699 C.ar    1  ZINC000541315701   -0.0400
     26 C26       -11.2665    2.3911   54.4834 C.ar    1  ZINC000541315701   -0.1300
     27 Br27      -10.3202    3.7563   55.3871 Br      1  ZINC000541315701   -0.0200
     28 H28        -7.4128    0.6194   53.8682 H       1  ZINC000541315701    0.0900
     29 H29        -8.5675    1.3197   52.7087 H       1  ZINC000541315701    0.0800
     30 H30        -7.8873    2.3293   54.0072 H       1  ZINC000541315701    0.0700
     31 H31       -11.7496   -1.5694   56.6300 H       1  ZINC000541315701    0.1200
     32 H32       -10.4271   -1.7526   55.4352 H       1  ZINC000541315701    0.1100
     33 H33        -8.4371   -3.0303   59.4564 H       1  ZINC000541315701    0.0900
     34 H34        -7.5981   -1.4610   59.4992 H       1  ZINC000541315701    0.0700
     35 H35        -9.0676   -1.7114   60.4720 H       1  ZINC000541315701    0.0600
     36 H36       -10.1416    2.2627   59.4877 H       1  ZINC000541315701    0.1300
     37 H37       -11.9868    2.8865   60.9942 H       1  ZINC000541315701    0.1400
     38 H38       -13.7844    1.2739   61.4728 H       1  ZINC000541315701    0.1400
     39 H39       -11.8947   -1.5848   58.9304 H       1  ZINC000541315701    0.1400
     40 H40       -13.0698   -0.4258   52.6701 H       1  ZINC000541315701    0.1700
     41 H41       -14.2474    1.6941   53.0780 H       1  ZINC000541315701    0.1500
     42 H42       -13.0690    3.5369   54.2598 H       1  ZINC000541315701    0.1500
@<TRIPOS>BOND
     1     1     2    1
     2     1    28    1
     3     1    29    1
     4     1    30    1
     5     2     3   am
     6     2    21    1
     7     3     4    2
     8     3     5    1
     9     5     6    1
    10     5    12    1
    11     5     7    1
    12     7     8    1
    13     7    31    1
    14     7    32    1
    15     8     9    2
    16     8    10   am
    17    10    11    1
    18    10    12    1
    19    11    33    1
    20    11    34    1
    21    11    35    1
    22    12    13    1
    23    12    14    1
    24    14    20   ar
    25    14    15   ar
    26    15    16   ar
    27    15    36    1
    28    16    17   ar
    29    16    37    1
    30    17    18   ar
    31    17    38    1
    32    18    19    1
    33    18    20   ar
    34    20    39    1
    35    21    26   ar
    36    21    22   ar
    37    22    23   ar
    38    23    24   ar
    39    23    40    1
    40    24    25   ar
    41    24    41    1
    42    25    26   ar
    43    25    42    1
    44    26    27    1
@<TRIPOS>SUBSTRUCTURE
     1 ZINC000541315701        1 TEMP              0 ****  ****    0 ROOT


##########                                Name:    ZINC000965273005
##########                DOCK_Rotatable_Bonds:                   7
##########                         Heavy_Atoms:                  27
##########                    Molecular_Weight:             368.436
##########                DOCK_Rotatable_Bonds:                   7
##########                       Formal_Charge:           0.0100003
##########                     HBond_Acceptors:                   7
##########                        HBond_Donors:                   2
##########                         Heavy_Atoms:                  27
##########                          Grid_Score:          -20.710802
##########                     Grid_vdw_energy:          -18.390863
##########                      Grid_es_energy:           -2.319939
##########           Internal_energy_repulsive:           27.166342

@<TRIPOS>MOLECULE
ZINC000965273005
 51 54 1 0 0
SMALL
USER_CHARGES


@<TRIPOS>ATOM
      1 C1        -15.8981    1.3528   59.3836 C.3     1  ZINC000965273005   -0.1200
      2 C2        -15.7681   -0.1435   59.2598 C.ar    1  ZINC000965273005   -0.0300
      3 C3        -16.6166   -0.8446   58.4284 C.ar    1  ZINC000965273005   -0.1200
      4 C4        -16.4986   -2.2185   58.3136 C.ar    1  ZINC000965273005   -0.0900
      5 C5        -15.5300   -2.8980   59.0304 C.ar    1  ZINC000965273005   -0.1300
      6 C6        -14.6748   -2.2088   59.8656 C.ar    1  ZINC000965273005   -0.0900
      7 C7        -14.7851   -0.8224   59.9819 C.ar    1  ZINC000965273005   -0.1300
      8 C8        -13.8722   -0.0774   60.8750 C.2     1  ZINC000965273005    0.5800
      9 O9        -14.3162    0.7586   61.6375 O.2     1  ZINC000965273005   -0.5200
     10 N10       -12.5478   -0.3251   60.8435 N.am    1  ZINC000965273005   -0.6100
     11 C11       -11.8772   -1.3027   59.9670 C.3     1  ZINC000965273005    0.0900
     12 C12       -10.4197   -0.7923   59.8459 C.3     1  ZINC000965273005    0.1500
     13 H13        -9.7379   -1.6095   59.6100 H       1  ZINC000965273005    0.1200
     14 N14       -10.3187    0.2764   58.8490 N.am    1  ZINC000965273005   -0.7100
     15 C15       -10.1099   -0.0286   57.5529 C.2     1  ZINC000965273005    0.6000
     16 O16       -10.0038   -1.1909   57.2111 O.2     1  ZINC000965273005   -0.5400
     17 C17       -10.0099    1.0468   56.5494 C.2     1  ZINC000965273005   -0.2800
     18 C18        -8.9046    1.8354   56.3008 C.2     1  ZINC000965273005    0.1000
     19 N19        -9.2315    2.6865   55.3152 N.pl3   1  ZINC000965273005   -0.3600
     20 C20        -8.3513    3.7042   54.7358 C.3     1  ZINC000965273005    0.1000
     21 N21       -10.5547    2.4370   54.9342 N.2     1  ZINC000965273005   -0.3000
     22 C22       -11.0256    1.4592   55.6580 C.2     1  ZINC000965273005    0.1700
     23 C23       -12.4131    0.8783   55.5666 C.3     1  ZINC000965273005   -0.0800
     24 C24       -13.1593    0.6218   56.8774 C.3     1  ZINC000965273005   -0.1700
     25 C25       -13.5835    1.7777   55.9693 C.3     1  ZINC000965273005   -0.1600
     26 C26       -10.1608   -0.2470   61.2752 C.3     1  ZINC000965273005    0.0900
     27 H27        -9.8721   -1.0535   61.9493 H       1  ZINC000965273005    0.0900
     28 O28        -9.1610    0.7737   61.2536 O.3     1  ZINC000965273005   -0.5500
     29 C29       -11.5318    0.3392   61.6728 C.3     1  ZINC000965273005    0.0600
     30 H30       -15.2007    1.8359   58.6993 H       1  ZINC000965273005    0.0800
     31 H31       -16.9166    1.6509   59.1349 H       1  ZINC000965273005    0.0700
     32 H32       -15.6709    1.6538   60.4063 H       1  ZINC000965273005    0.0700
     33 H33       -17.3748   -0.3200   57.8660 H       1  ZINC000965273005    0.1300
     34 H34       -17.1658   -2.7628   57.6617 H       1  ZINC000965273005    0.1300
     35 H35       -15.4431   -3.9704   58.9363 H       1  ZINC000965273005    0.1300
     36 H36       -13.9193   -2.7405   60.4250 H       1  ZINC000965273005    0.1300
     37 H37       -11.8958   -2.2939   60.4202 H       1  ZINC000965273005    0.0900
     38 H38       -12.3544   -1.3237   58.9872 H       1  ZINC000965273005    0.0900
     39 H39       -10.4020    1.2035   59.1217 H       1  ZINC000965273005    0.4000
     40 H40        -7.9520    1.7788   56.8066 H       1  ZINC000965273005    0.1800
     41 H41        -7.8045    3.2761   53.8957 H       1  ZINC000965273005    0.0800
     42 H42        -8.9493    4.5468   54.3887 H       1  ZINC000965273005    0.1000
     43 H43        -7.6452    4.0469   55.4921 H       1  ZINC000965273005    0.0900
     44 H44       -12.5760    0.1764   54.7487 H       1  ZINC000965273005    0.1400
     45 H45       -13.8132   -0.2491   56.9223 H       1  ZINC000965273005    0.1000
     46 H46       -12.6466    0.8733   57.8059 H       1  ZINC000965273005    0.1000
     47 H47       -13.3499    2.7896   56.3003 H       1  ZINC000965273005    0.0900
     48 H48       -14.5164    1.6673   55.4166 H       1  ZINC000965273005    0.1000
     49 H49        -8.7370    0.9272   62.1090 H       1  ZINC000965273005    0.3900
     50 H50       -11.5423    1.4139   61.4906 H       1  ZINC000965273005    0.0800
     51 H51       -11.7300    0.1376   62.7255 H       1  ZINC000965273005    0.0800
@<TRIPOS>BOND
     1     1     2    1
     2     1    30    1
     3     1    31    1
     4     1    32    1
     5     2     7   ar
     6     2     3   ar
     7     3     4   ar
     8     3    33    1
     9     4     5   ar
    10     4    34    1
    11     5     6   ar
    12     5    35    1
    13     6     7   ar
    14     6    36    1
    15     7     8    1
    16     8     9    2
    17     8    10   am
    18    10    29    1
    19    10    11    1
    20    11    12    1
    21    11    37    1
    22    11    38    1
    23    12    13    1
    24    12    14    1
    25    12    26    1
    26    14    15   am
    27    14    39    1
    28    15    16    2
    29    15    17    1
    30    17    22    1
    31    17    18    2
    32    18    19    1
    33    18    40    1
    34    19    20    1
    35    19    21    1
    36    20    41    1
    37    20    42    1
    38    20    43    1
    39    21    22    2
    40    22    23    1
    41    23    25    1
    42    23    24    1
    43    23    44    1
    44    24    25    1
    45    24    45    1
    46    24    46    1
    47    25    47    1
    48    25    48    1
    49    26    27    1
    50    26    28    1
    51    26    29    1
    52    28    49    1
    53    29    50    1
    54    29    51    1
@<TRIPOS>SUBSTRUCTURE
     1 ZINC000965273005        1 TEMP              0 ****  ****    0 ROOT


##########                                Name:    ZINC000012087388
##########                DOCK_Rotatable_Bonds:                   5
##########                         Heavy_Atoms:                  29
##########                    Molecular_Weight:              418.52
##########                DOCK_Rotatable_Bonds:                   5
##########                       Formal_Charge:          -0.0499999
##########                     HBond_Acceptors:                  10
##########                        HBond_Donors:                   1
##########                         Heavy_Atoms:                  29
##########                          Grid_Score:          -20.652382
##########                     Grid_vdw_energy:          -20.470421
##########                      Grid_es_energy:           -0.181961
##########           Internal_energy_repulsive:           36.100456

@<TRIPOS>MOLECULE
ZINC000012087388
 55 58 1 0 0
SMALL
USER_CHARGES


@<TRIPOS>ATOM
      1 C1         -8.5905    3.3977   60.3172 C.3     1  <0>        -0.6600
      2 S2        -10.3845    3.6661   60.3157 S.o2    1  <0>         2.5100
      3 O3        -10.8535    3.9082   61.6350 O.2     1  <0>        -0.9400
      4 O4        -10.7612    4.5115   59.2375 O.2     1  <0>        -0.9300
      5 C5        -11.0636    2.0958   59.8943 C.ar    1  <0>        -0.8400
      6 C6        -11.7393    1.3401   60.8392 C.ar    1  <0>         0.3000
      7 N7        -12.2375    0.1654   60.4900 N.ar    1  <0>        -0.5800
      8 C8        -12.0962   -0.2896   59.2539 C.ar    1  <0>         0.6000
      9 N9        -12.6300   -1.5229   58.9228 N.pl3   1  <0>        -0.5700
     10 C10       -13.7990   -2.0497   59.6403 C.3     1  <0>         0.1200
     11 C11       -14.8784   -2.4212   58.6187 C.3     1  <0>        -0.1400
     12 C12       -14.2881   -3.3843   57.5862 C.3     1  <0>        -0.1200
     13 C13       -13.1376   -2.6987   56.8457 C.3     1  <0>        -0.1400
     14 C14       -12.0422   -2.3277   57.8432 C.3     1  <0>         0.1200
     15 N15       -11.4562    0.4080   58.3268 N.ar    1  <0>        -0.5700
     16 C16       -10.9386    1.5920   58.6089 C.ar    1  <0>         0.3200
     17 C17       -10.2124    2.3790   57.5487 C.3     1  <0>        -0.0700
     18 C18        -9.4244    1.4208   56.6524 C.3     1  <0>        -0.1300
     19 C19        -8.6601    2.2268   55.5974 C.3     1  <0>         0.0900
     20 N20        -9.6112    3.0833   54.8760 N.am    1  <0>        -0.6100
     21 C21        -9.6831    3.0482   53.5306 C.2     1  <0>         0.5900
     22 O22       -10.4748    3.7621   52.9451 O.2     1  <0>        -0.5100
     23 C23        -8.8037    2.1460   52.7701 C.2     1  <0>        -0.0400
     24 C24        -7.8387    2.5098   51.8470 C.2     1  <0>        -0.1500
     25 C25        -7.2792    1.3091   51.4040 C.2     1  <0>         0.0000
     26 N26        -7.8820    0.3305   52.0297 N.2     1  <0>        -0.2700
     27 N27        -8.7722    0.7821   52.8379 N.pl3   1  <0>        -0.3900
     28 C28       -10.4829    3.9785   55.6491 C.3     1  <0>         0.1100
     29 C29       -11.2268    3.1528   56.7034 C.3     1  <0>        -0.1200
     30 H30        -8.3379    2.6344   61.0531 H       1  <0>         0.1400
     31 H31        -8.2715    3.0685   59.3282 H       1  <0>         0.1300
     32 H32        -8.0839    4.3289   60.5710 H       1  <0>         0.1400
     33 H33       -11.8574    1.7056   61.8486 H       1  <0>         0.1900
     34 H34       -13.5116   -2.9355   60.2066 H       1  <0>         0.0700
     35 H35       -14.1845   -1.2888   60.3189 H       1  <0>         0.1000
     36 H36       -15.7127   -2.9019   59.1294 H       1  <0>         0.0800
     37 H37       -15.2295   -1.5197   58.1162 H       1  <0>         0.0700
     38 H38       -13.9149   -4.2748   58.0921 H       1  <0>         0.0700
     39 H39       -15.0607   -3.6696   56.8722 H       1  <0>         0.0700
     40 H40       -12.7328   -3.3770   56.0946 H       1  <0>         0.0800
     41 H41       -13.5050   -1.7947   56.3601 H       1  <0>         0.0700
     42 H42       -11.2670   -1.7522   57.3372 H       1  <0>         0.1000
     43 H43       -11.6099   -3.2349   58.2654 H       1  <0>         0.0700
     44 H44        -9.5253    3.0797   58.0231 H       1  <0>         0.1000
     45 H45        -8.7183    0.8533   57.2587 H       1  <0>         0.0800
     46 H46       -10.1132    0.7357   56.1582 H       1  <0>         0.0900
     47 H47        -7.9078    2.8465   56.0854 H       1  <0>         0.0800
     48 H48        -8.1771    1.5460   54.8966 H       1  <0>         0.0900
     49 H49        -7.5745    3.5096   51.5355 H       1  <0>         0.1700
     50 H50        -6.4897    1.2066   50.6742 H       1  <0>         0.1900
     51 H51        -9.3403    0.2374   53.4049 H       1  <0>         0.4400
     52 H52        -9.8792    4.7410   56.1412 H       1  <0>         0.0800
     53 H53       -11.2025    4.4534   54.9823 H       1  <0>         0.1000
     54 H54       -11.8986    2.4514   56.2088 H       1  <0>         0.0800
     55 H55       -11.8035    3.8181   57.3461 H       1  <0>         0.0900
@<TRIPOS>BOND
     1     1     2    1
     2     1    30    1
     3     1    31    1
     4     1    32    1
     5     2     3    2
     6     2     4    2
     7     2     5    1
     8     5    16   ar
     9     5     6   ar
    10     6     7   ar
    11     6    33    1
    12     7     8   ar
    13     8     9    1
    14     8    15   ar
    15     9    14    1
    16     9    10    1
    17    10    11    1
    18    10    34    1
    19    10    35    1
    20    11    12    1
    21    11    36    1
    22    11    37    1
    23    12    13    1
    24    12    38    1
    25    12    39    1
    26    13    14    1
    27    13    40    1
    28    13    41    1
    29    14    42    1
    30    14    43    1
    31    15    16   ar
    32    16    17    1
    33    17    29    1
    34    17    18    1
    35    17    44    1
    36    18    19    1
    37    18    45    1
    38    18    46    1
    39    19    20    1
    40    19    47    1
    41    19    48    1
    42    20    21   am
    43    20    28    1
    44    21    22    2
    45    21    23    1
    46    23    27    1
    47    23    24    2
    48    24    25    1
    49    24    49    1
    50    25    26    2
    51    25    50    1
    52    26    27    1
    53    27    51    1
    54    28    29    1
    55    28    52    1
    56    28    53    1
    57    29    54    1
    58    29    55    1
@<TRIPOS>SUBSTRUCTURE
     1 <0>         1 TEMP              0 ****  ****    0 ROOT


##########                                Name:    ZINC000820901229
##########                DOCK_Rotatable_Bonds:                   3
##########                         Heavy_Atoms:                  18
##########                    Molecular_Weight:             331.233
##########                DOCK_Rotatable_Bonds:                   3
##########                       Formal_Charge:           0.0099999
##########                     HBond_Acceptors:                   5
##########                        HBond_Donors:                   1
##########                         Heavy_Atoms:                  18
##########                          Grid_Score:          -20.064795
##########                     Grid_vdw_energy:          -18.829000
##########                      Grid_es_energy:           -1.235795
##########           Internal_energy_repulsive:            5.476178

@<TRIPOS>MOLECULE
ZINC000820901229
 33 35 1 0 0
SMALL
USER_CHARGES


@<TRIPOS>ATOM
      1 O1         -7.2281    0.2895   58.1960 O.2     1  ZINC000820901229   -0.5300
      2 C2         -7.8496    0.7665   57.2655 C.2     1  ZINC000820901229    0.6000
      3 N3         -9.0723    0.2907   56.9573 N.am    1  ZINC000820901229   -0.7100
      4 C4         -9.6505   -0.8050   57.7392 C.3     1  ZINC000820901229    0.1600
      5 H5         -8.8558   -1.3845   58.2092 H       1  ZINC000820901229    0.1000
      6 C6        -10.4899   -1.7129   56.8259 C.3     1  ZINC000820901229   -0.1300
      7 C7        -11.1620   -2.8320   57.6157 C.3     1  ZINC000820901229   -0.1100
      8 C8        -11.9990   -2.2737   58.7785 C.3     1  ZINC000820901229   -0.1100
      9 C9        -11.0705   -1.4534   59.6500 C.3     1  ZINC000820901229    0.0800
     10 H10       -10.2163   -2.0606   59.9497 H       1  ZINC000820901229    0.0700
     11 O11       -11.6301   -0.8164   60.7929 O.3     1  ZINC000820901229   -0.3700
     12 C12       -10.6725    0.2072   61.1659 C.3     1  ZINC000820901229    0.0500
     13 C13        -9.9108    0.6100   59.8766 C.3     1  ZINC000820901229   -0.1500
     14 C14       -10.5807   -0.2468   58.8018 C.3     1  ZINC000820901229   -0.1400
     15 H15       -11.4181    0.2839   58.3489 H       1  ZINC000820901229    0.0900
     16 C16        -7.2685    1.8678   56.4795 C.2     1  ZINC000820901229    0.0100
     17 C17        -7.9485    2.5256   55.5142 C.2     1  ZINC000820901229   -0.2200
     18 S18        -6.9329    3.7254   54.8427 S.3     1  ZINC000820901229    0.3100
     19 C19        -5.6586    3.2805   55.8889 C.2     1  ZINC000820901229   -0.0100
     20 Br20       -3.9543    4.0995   55.9195 Br      1  ZINC000820901229    0.0700
     21 N21        -6.0216    2.3140   56.6580 N.2     1  ZINC000820901229   -0.4100
     22 H22        -9.5696    0.6739   56.2178 H       1  ZINC000820901229    0.4100
     23 H23       -11.2564   -1.1134   56.3349 H       1  ZINC000820901229    0.0700
     24 H24        -9.8421   -2.1517   56.0671 H       1  ZINC000820901229    0.0700
     25 H25       -11.8117   -3.3986   56.9486 H       1  ZINC000820901229    0.0800
     26 H26       -10.3959   -3.4967   58.0147 H       1  ZINC000820901229    0.0700
     27 H27       -12.7977   -1.6417   58.3903 H       1  ZINC000820901229    0.0700
     28 H28       -12.4225   -3.0941   59.3578 H       1  ZINC000820901229    0.0800
     29 H29       -11.1943    1.0725   61.5745 H       1  ZINC000820901229    0.0900
     30 H30        -9.9730   -0.1894   61.9017 H       1  ZINC000820901229    0.0600
     31 H31       -10.0494    1.6698   59.6625 H       1  ZINC000820901229    0.0800
     32 H32        -8.8514    0.3688   59.9638 H       1  ZINC000820901229    0.0800
     33 H33        -8.9669    2.3254   55.2154 H       1  ZINC000820901229    0.2000
@<TRIPOS>BOND
     1     1     2    2
     2     2     3   am
     3     2    16    1
     4     3     4    1
     5     3    22    1
     6     4     5    1
     7     4    14    1
     8     4     6    1
     9     6     7    1
    10     6    23    1
    11     6    24    1
    12     7     8    1
    13     7    25    1
    14     7    26    1
    15     8     9    1
    16     8    27    1
    17     8    28    1
    18     9    10    1
    19     9    14    1
    20     9    11    1
    21    11    12    1
    22    12    13    1
    23    12    29    1
    24    12    30    1
    25    13    14    1
    26    13    31    1
    27    13    32    1
    28    14    15    1
    29    16    21    1
    30    16    17    2
    31    17    18    1
    32    17    33    1
    33    18    19    1
    34    19    20    1
    35    19    21    2
@<TRIPOS>SUBSTRUCTURE
     1 ZINC000820901229        1 TEMP              0 ****  ****    0 ROOT


##########                                Name:    ZINC000010935976
##########                DOCK_Rotatable_Bonds:                   3
##########                         Heavy_Atoms:                  26
##########                    Molecular_Weight:             391.558
##########                DOCK_Rotatable_Bonds:                   3
##########                       Formal_Charge:         -0.00999979
##########                     HBond_Acceptors:                   7
##########                        HBond_Donors:                   1
##########                         Heavy_Atoms:                  26
##########                          Grid_Score:          -19.427128
##########                     Grid_vdw_energy:          -18.211447
##########                      Grid_es_energy:           -1.215680
##########           Internal_energy_repulsive:          127.051941

@<TRIPOS>MOLECULE
ZINC000010935976
 51 54 1 0 0
SMALL
USER_CHARGES


@<TRIPOS>ATOM
      1 C1         -9.3865    2.5152   62.6659 C.3     1  ZINC000010935976   -0.0800
      2 C2         -9.5905    2.2821   61.1911 C.2     1  ZINC000010935976   -0.2100
      3 C3        -10.0778    1.1712   60.6739 C.2     1  ZINC000010935976   -0.0400
      4 C4        -10.4907   -0.0055   61.5203 C.3     1  ZINC000010935976   -0.1000
      5 C5        -10.1862    1.1694   59.2268 C.2     1  ZINC000010935976   -0.2300
      6 C6         -9.7445    2.3661   58.6670 C.2     1  ZINC000010935976    0.0900
      7 N7         -9.7779    2.5295   57.3295 N.2     1  ZINC000010935976   -0.4900
      8 C8        -10.2187    1.5855   56.5330 C.2     1  ZINC000010935976    0.3400
      9 S9        -10.2342    1.8659   54.7935 S.3     1  ZINC000010935976    0.0500
     10 C10        -9.2375    3.3743   54.7093 C.3     1  ZINC000010935976   -0.1000
     11 H11        -9.6373    4.1165   55.4003 H       1  ZINC000010935976    0.1400
     12 C12        -9.2663    3.9309   53.2837 C.3     1  ZINC000010935976   -0.1000
     13 C13        -9.3128    2.8042   52.2676 C.3     1  ZINC000010935976   -0.1300
     14 C14        -8.0513    1.9613   52.2290 C.3     1  ZINC000010935976   -0.1400
     15 C15        -7.8821    1.1732   53.5292 C.3     1  ZINC000010935976    0.0700
     16 N16        -7.1802    2.0212   54.5063 N.am    1  ZINC000010935976   -0.7200
     17 C17        -7.8031    3.0576   55.0769 C.2     1  ZINC000010935976    0.5400
     18 O18        -7.2156    3.7459   55.8842 O.2     1  ZINC000010935976   -0.5200
     19 N19       -10.6651    0.3909   57.0191 N.am    1  ZINC000010935976   -0.5100
     20 C20       -11.1489   -0.6378   56.0950 C.3     1  ZINC000010935976    0.1200
     21 C21       -10.1027   -1.7637   55.9628 C.3     1  ZINC000010935976   -0.1300
     22 C22       -10.5706   -2.8378   56.9758 C.3     1  ZINC000010935976   -0.1300
     23 C23       -12.1127   -2.7872   56.8399 C.3     1  ZINC000010935976   -0.1100
     24 C24       -12.4269   -1.2885   56.6527 C.3     1  ZINC000010935976   -0.1200
     25 C25       -10.6620    0.1531   58.3451 C.2     1  ZINC000010935976    0.5600
     26 O26       -11.0600   -0.9121   58.7848 O.2     1  ZINC000010935976   -0.5000
     27 S27        -9.2174    3.4558   59.9433 S.3     1  ZINC000010935976    0.2100
     28 H28        -8.9769    3.5131   62.8228 H       1  ZINC000010935976    0.0700
     29 H29       -10.3422    2.4293   63.1829 H       1  ZINC000010935976    0.0800
     30 H30        -8.6928    1.7719   63.0587 H       1  ZINC000010935976    0.0800
     31 H31       -11.5407    0.0953   61.7952 H       1  ZINC000010935976    0.0700
     32 H32       -10.3498   -0.9267   60.9551 H       1  ZINC000010935976    0.0800
     33 H33        -9.8801   -0.0358   62.4228 H       1  ZINC000010935976    0.0700
     34 H34       -10.1477    4.5606   53.1620 H       1  ZINC000010935976    0.0900
     35 H35        -8.3718    4.5303   53.1143 H       1  ZINC000010935976    0.0900
     36 H36       -10.1569    2.1566   52.5046 H       1  ZINC000010935976    0.0700
     37 H37        -9.4746    3.2338   51.2790 H       1  ZINC000010935976    0.0800
     38 H38        -8.1111    1.2646   51.3928 H       1  ZINC000010935976    0.0800
     39 H39        -7.1888    2.6132   52.0903 H       1  ZINC000010935976    0.0700
     40 H40        -8.8618    0.8984   53.9205 H       1  ZINC000010935976    0.1100
     41 H41        -7.2966    0.2738   53.3382 H       1  ZINC000010935976    0.0900
     42 H42        -6.2593    1.8258   54.7403 H       1  ZINC000010935976    0.4000
     43 H43       -11.3498   -0.1972   55.1184 H       1  ZINC000010935976    0.1000
     44 H44       -10.1033   -2.1681   54.9505 H       1  ZINC000010935976    0.0800
     45 H45        -9.1112   -1.3961   56.2271 H       1  ZINC000010935976    0.0700
     46 H46       -10.1906   -3.8213   56.6991 H       1  ZINC000010935976    0.0600
     47 H47       -10.2632   -2.5744   57.9878 H       1  ZINC000010935976    0.1100
     48 H48       -12.4379   -3.3567   55.9693 H       1  ZINC000010935976    0.0600
     49 H49       -12.5881   -3.1665   57.7444 H       1  ZINC000010935976    0.0700
     50 H50       -12.6871   -0.8390   57.6109 H       1  ZINC000010935976    0.0800
     51 H51       -13.2478   -1.1644   55.9463 H       1  ZINC000010935976    0.0700
@<TRIPOS>BOND
     1     1     2    1
     2     1    28    1
     3     1    29    1
     4     1    30    1
     5     2    27    1
     6     2     3    2
     7     3     4    1
     8     3     5    1
     9     4    31    1
    10     4    32    1
    11     4    33    1
    12     5    25    1
    13     5     6    2
    14     6     7    1
    15     6    27    1
    16     7     8    2
    17     8     9    1
    18     8    19    1
    19     9    10    1
    20    10    11    1
    21    10    17    1
    22    10    12    1
    23    12    13    1
    24    12    34    1
    25    12    35    1
    26    13    14    1
    27    13    36    1
    28    13    37    1
    29    14    15    1
    30    14    38    1
    31    14    39    1
    32    15    16    1
    33    15    40    1
    34    15    41    1
    35    16    17   am
    36    16    42    1
    37    17    18    2
    38    19    20    1
    39    19    25   am
    40    20    24    1
    41    20    21    1
    42    20    43    1
    43    21    22    1
    44    21    44    1
    45    21    45    1
    46    22    23    1
    47    22    46    1
    48    22    47    1
    49    23    24    1
    50    23    48    1
    51    23    49    1
    52    24    50    1
    53    24    51    1
    54    25    26    2
@<TRIPOS>SUBSTRUCTURE
     1 ZINC000010935976        1 TEMP              0 ****  ****    0 ROOT


##########                                Name:    ZINC000507831344
##########                DOCK_Rotatable_Bonds:                   6
##########                         Heavy_Atoms:                  31
##########                    Molecular_Weight:              422.53
##########                DOCK_Rotatable_Bonds:                   6
##########                       Formal_Charge:          -0.0200002
##########                     HBond_Acceptors:                   8
##########                        HBond_Donors:                   2
##########                         Heavy_Atoms:                  31
##########                          Grid_Score:          -19.294571
##########                     Grid_vdw_energy:          -18.457308
##########                      Grid_es_energy:           -0.837263
##########           Internal_energy_repulsive:          118.827690

@<TRIPOS>MOLECULE
ZINC000507831344
 61 64 1 0 0
SMALL
USER_CHARGES


@<TRIPOS>ATOM
      1 C1        -12.5926    1.1820   61.7432 C.3     1  ZINC000507831344   -0.1000
      2 C2        -11.4285    2.1374   61.6861 C.ar    1  ZINC000507831344   -0.0800
      3 C3        -10.6284    2.1992   60.5603 C.ar    1  ZINC000507831344   -0.0800
      4 C4         -9.5628    3.0980   60.5514 C.ar    1  ZINC000507831344    0.0900
      5 N5         -8.7257    3.1950   59.4311 N.am    1  ZINC000507831344   -0.6700
      6 C6         -9.2272    3.6018   58.2482 C.2     1  ZINC000507831344    0.5100
      7 O7        -10.4031    3.8841   58.1529 O.2     1  ZINC000507831344   -0.5100
      8 C8         -8.3273    3.7060   57.0439 C.3     1  ZINC000507831344   -0.1400
      9 C9         -7.4010    4.9133   57.2024 C.3     1  ZINC000507831344   -0.0500
     10 C10        -5.9932    4.5175   56.8382 C.2     1  ZINC000507831344   -0.2200
     11 C11        -5.6116    4.4625   55.5348 C.2     1  ZINC000507831344    0.2100
     12 C12        -6.5907    4.7963   54.4389 C.3     1  ZINC000507831344   -0.1400
     13 N13        -4.3358    4.1031   55.2317 N.pl3   1  ZINC000507831344   -0.3000
     14 N14        -3.6651    3.9597   54.0111 N.am    1  ZINC000507831344   -0.5100
     15 C15        -2.3982    3.5786   54.2628 C.2     1  ZINC000507831344    0.5500
     16 O16        -1.5373    3.3631   53.4250 O.2     1  ZINC000507831344   -0.5400
     17 C17        -2.2376    3.4722   55.6434 C.2     1  ZINC000507831344   -0.3500
     18 C18        -3.4533    3.8019   56.2385 C.2     1  ZINC000507831344    0.3500
     19 N19        -3.8382    3.8593   57.5188 N.2     1  ZINC000507831344   -0.4800
     20 C20        -5.0654    4.2089   57.8391 C.2     1  ZINC000507831344    0.2500
     21 C21        -5.4760    4.2671   59.2879 C.3     1  ZINC000507831344   -0.1200
     22 C22        -9.3414    3.8953   61.6637 C.ar    1  ZINC000507831344    0.0800
     23 N23       -10.1253    3.8101   62.7218 N.ar    1  ZINC000507831344   -0.4900
     24 C24       -11.1489    2.9722   62.7632 C.ar    1  ZINC000507831344    0.2800
     25 N25       -11.9486    2.9181   63.9016 N.3     1  ZINC000507831344   -0.4800
     26 C26       -11.1778    3.2633   65.1030 C.3     1  ZINC000507831344    0.0600
     27 C27       -12.0460    3.0529   66.3455 C.3     1  ZINC000507831344   -0.1200
     28 C28       -13.2935    3.9352   66.2458 C.3     1  ZINC000507831344   -0.1200
     29 C29       -14.0524    3.5892   64.9617 C.3     1  ZINC000507831344   -0.1100
     30 C30       -13.1260    3.7840   63.7593 C.3     1  ZINC000507831344    0.0900
     31 H31       -12.8074    4.8253   63.7111 H       1  ZINC000507831344    0.0600
     32 C32       -13.8741    3.4198   62.4752 C.3     1  ZINC000507831344   -0.1400
     33 H33       -13.5028    1.7000   61.4406 H       1  ZINC000507831344    0.0700
     34 H34       -12.4094    0.3453   61.0691 H       1  ZINC000507831344    0.0600
     35 H35       -12.7077    0.8100   62.7613 H       1  ZINC000507831344    0.0800
     36 H36       -10.8240    1.5656   59.7079 H       1  ZINC000507831344    0.1500
     37 H37        -7.7854    2.9691   59.5073 H       1  ZINC000507831344    0.4100
     38 H38        -7.7299    2.7985   56.9573 H       1  ZINC000507831344    0.1000
     39 H39        -8.9339    3.8287   56.1466 H       1  ZINC000507831344    0.1000
     40 H40        -7.7344    5.7160   56.5445 H       1  ZINC000507831344    0.0900
     41 H41        -7.4258    5.2571   58.2364 H       1  ZINC000507831344    0.1000
     42 H42        -6.5386    5.8623   54.2175 H       1  ZINC000507831344    0.1000
     43 H43        -6.3419    4.2266   53.5435 H       1  ZINC000507831344    0.0800
     44 H44        -7.5997    4.5415   54.7631 H       1  ZINC000507831344    0.1100
     45 H45        -4.0483    4.1091   53.1327 H       1  ZINC000507831344    0.4400
     46 H46        -1.3331    3.1853   56.1592 H       1  ZINC000507831344    0.1700
     47 H47        -4.6302    3.9887   59.9167 H       1  ZINC000507831344    0.0900
     48 H48        -5.7947    5.2797   59.5349 H       1  ZINC000507831344    0.1000
     49 H49        -6.3001    3.5746   59.4600 H       1  ZINC000507831344    0.0900
     50 H50        -8.5178    4.5937   61.6644 H       1  ZINC000507831344    0.1600
     51 H51       -10.2958    2.6258   65.1641 H       1  ZINC000507831344    0.0700
     52 H52       -10.8683    4.3069   65.0485 H       1  ZINC000507831344    0.0500
     53 H53       -12.3445    2.0064   66.4081 H       1  ZINC000507831344    0.0700
     54 H54       -11.4788    3.3240   67.2360 H       1  ZINC000507831344    0.0700
     55 H55       -13.9359    3.7565   67.1079 H       1  ZINC000507831344    0.0700
     56 H56       -12.9971    4.9839   66.2224 H       1  ZINC000507831344    0.0600
     57 H57       -14.3825    2.5512   65.0025 H       1  ZINC000507831344    0.0700
     58 H58       -14.9187    4.2435   64.8634 H       1  ZINC000507831344    0.0700
     59 H59       -14.6968    4.1185   62.3234 H       1  ZINC000507831344    0.0600
     60 H60       -13.1900    3.4745   61.6283 H       1  ZINC000507831344    0.0500
     61 H61       -14.2682    2.4070   62.5591 H       1  ZINC000507831344    0.0600
@<TRIPOS>BOND
     1     1     2    1
     2     1    33    1
     3     1    34    1
     4     1    35    1
     5     2    24   ar
     6     2     3   ar
     7     3     4   ar
     8     3    36    1
     9     4     5    1
    10     4    22   ar
    11     5     6   am
    12     5    37    1
    13     6     7    2
    14     6     8    1
    15     8     9    1
    16     8    38    1
    17     8    39    1
    18     9    10    1
    19     9    40    1
    20     9    41    1
    21    10    20    1
    22    10    11    2
    23    11    12    1
    24    11    13    1
    25    12    42    1
    26    12    43    1
    27    12    44    1
    28    13    18    1
    29    13    14    1
    30    14    15   am
    31    14    45    1
    32    15    16    2
    33    15    17    1
    34    17    18    2
    35    17    46    1
    36    18    19    1
    37    19    20    2
    38    20    21    1
    39    21    47    1
    40    21    48    1
    41    21    49    1
    42    22    23   ar
    43    22    50    1
    44    23    24   ar
    45    24    25    1
    46    25    30    1
    47    25    26    1
    48    26    27    1
    49    26    51    1
    50    26    52    1
    51    27    28    1
    52    27    53    1
    53    27    54    1
    54    28    29    1
    55    28    55    1
    56    28    56    1
    57    29    30    1
    58    29    57    1
    59    29    58    1
    60    30    31    1
    61    30    32    1
    62    32    59    1
    63    32    60    1
    64    32    61    1
@<TRIPOS>SUBSTRUCTURE
     1 ZINC000507831344        1 TEMP              0 ****  ****    0 ROOT


##########                                Name:    ZINC000550782577
##########                DOCK_Rotatable_Bonds:                   5
##########                         Heavy_Atoms:                  25
##########                    Molecular_Weight:              338.45
##########                DOCK_Rotatable_Bonds:                   5
##########                       Formal_Charge:         -0.00999954
##########                     HBond_Acceptors:                   4
##########                        HBond_Donors:                   0
##########                         Heavy_Atoms:                  25
##########                          Grid_Score:          -19.226519
##########                     Grid_vdw_energy:          -18.766256
##########                      Grid_es_energy:           -0.460262
##########           Internal_energy_repulsive:          196.071381

@<TRIPOS>MOLECULE
ZINC000550782577
 51 53 1 0 0
SMALL
USER_CHARGES


@<TRIPOS>ATOM
      1 C1         -8.4229   -0.4812   60.5417 C.3     1  ZINC000550782577    0.0700
      2 N2         -9.4276   -0.2166   59.5089 N.am    1  ZINC000550782577   -0.5900
      3 C3        -10.4824    0.5765   59.7823 C.2     1  ZINC000550782577    0.5800
      4 O4        -11.3160    0.7960   58.9255 O.2     1  ZINC000550782577   -0.5400
      5 C5        -10.6255    1.1799   61.1254 C.ar    1  ZINC000550782577    0.0300
      6 C6        -11.1288    2.4742   61.2500 C.ar    1  ZINC000550782577   -0.0600
      7 C7        -11.2581    3.0281   62.5113 C.ar    1  ZINC000550782577   -0.1200
      8 C8        -10.8781    2.2659   63.6123 C.ar    1  ZINC000550782577    0.1100
      9 O9        -10.9886    2.7702   64.8675 O.3     1  ZINC000550782577   -0.3000
     10 C10       -11.5047    4.0971   64.9905 C.3     1  ZINC000550782577    0.1000
     11 C11       -12.9148    4.1525   64.3996 C.3     1  ZINC000550782577   -0.2000
     12 C12       -11.5552    4.4896   66.4685 C.3     1  ZINC000550782577   -0.1400
     13 C13       -10.5965    5.0696   64.2353 C.3     1  ZINC000550782577   -0.2000
     14 C14       -10.3833    0.9796   63.4110 C.ar    1  ZINC000550782577   -0.0100
     15 N15       -10.2783    0.4812   62.2003 N.ar    1  ZINC000550782577   -0.4100
     16 C16        -9.2859   -0.8142   58.1788 C.3     1  ZINC000550782577    0.1400
     17 H17        -8.4216   -1.4783   58.1652 H       1  ZINC000550782577    0.1100
     18 C18       -10.5515   -1.6067   57.8314 C.3     1  ZINC000550782577   -0.1300
     19 C19       -10.2841   -2.4084   56.5592 C.3     1  ZINC000550782577   -0.0800
     20 C20        -9.7311   -1.5170   55.4782 C.ar    1  ZINC000550782577   -0.0800
     21 C21        -9.7865   -1.9773   54.1692 C.ar    1  ZINC000550782577   -0.1200
     22 C22        -9.2915   -1.2103   53.1347 C.ar    1  ZINC000550782577   -0.1200
     23 C23        -8.7350    0.0263   53.4026 C.ar    1  ZINC000550782577   -0.1200
     24 C24        -8.6811    0.4865   54.7022 C.ar    1  ZINC000550782577   -0.1200
     25 C25        -9.1821   -0.2825   55.7444 C.ar    1  ZINC000550782577   -0.0700
     26 C26        -9.1045    0.2875   57.1366 C.3     1  ZINC000550782577   -0.0900
     27 H27        -8.7649   -1.2948   61.1814 H       1  ZINC000550782577    0.0600
     28 H28        -7.4814   -0.7617   60.0694 H       1  ZINC000550782577    0.0600
     29 H29        -8.2747    0.4159   61.1428 H       1  ZINC000550782577    0.1100
     30 H30       -11.4136    3.0372   60.3735 H       1  ZINC000550782577    0.1600
     31 H31       -11.6446    4.0285   62.6387 H       1  ZINC000550782577    0.1500
     32 H32       -13.6348    3.8149   65.1450 H       1  ZINC000550782577    0.0700
     33 H33       -13.1467    5.1770   64.1084 H       1  ZINC000550782577    0.0800
     34 H34       -12.9677    3.5052   63.5241 H       1  ZINC000550782577    0.0800
     35 H35       -10.5506    4.4501   66.8894 H       1  ZINC000550782577    0.0700
     36 H36       -11.9490    5.5017   66.5622 H       1  ZINC000550782577    0.0800
     37 H37       -12.2022    3.7967   67.0065 H       1  ZINC000550782577    0.0700
     38 H38       -10.5642    4.7927   63.1816 H       1  ZINC000550782577    0.0800
     39 H39       -10.9877    6.0823   64.3330 H       1  ZINC000550782577    0.0800
     40 H40        -9.5908    5.0266   64.6532 H       1  ZINC000550782577    0.0700
     41 H41       -10.0867    0.3831   64.2610 H       1  ZINC000550782577    0.1900
     42 H42       -10.7954   -2.2856   58.6486 H       1  ZINC000550782577    0.0700
     43 H43       -11.3808   -0.9193   57.6647 H       1  ZINC000550782577    0.0700
     44 H44        -9.5651   -3.1983   56.7766 H       1  ZINC000550782577    0.0800
     45 H45       -11.2160   -2.8563   56.2141 H       1  ZINC000550782577    0.0800
     46 H46       -10.2203   -2.9438   53.9593 H       1  ZINC000550782577    0.1200
     47 H47        -9.3384   -1.5748   52.1192 H       1  ZINC000550782577    0.1200
     48 H48        -8.3432    0.6301   52.5973 H       1  ZINC000550782577    0.1200
     49 H49        -8.2458    1.4527   54.9106 H       1  ZINC000550782577    0.1200
     50 H50        -9.8883    1.0342   57.2636 H       1  ZINC000550782577    0.0800
     51 H51        -8.1325    0.7601   57.2779 H       1  ZINC000550782577    0.0800
@<TRIPOS>BOND
     1     1     2    1
     2     1    27    1
     3     1    28    1
     4     1    29    1
     5     2     3   am
     6     2    16    1
     7     3     4    2
     8     3     5    1
     9     5    15   ar
    10     5     6   ar
    11     6     7   ar
    12     6    30    1
    13     7     8   ar
    14     7    31    1
    15     8     9    1
    16     8    14   ar
    17     9    10    1
    18    10    11    1
    19    10    12    1
    20    10    13    1
    21    11    32    1
    22    11    33    1
    23    11    34    1
    24    12    35    1
    25    12    36    1
    26    12    37    1
    27    13    38    1
    28    13    39    1
    29    13    40    1
    30    14    15   ar
    31    14    41    1
    32    16    17    1
    33    16    26    1
    34    16    18    1
    35    18    19    1
    36    18    42    1
    37    18    43    1
    38    19    20    1
    39    19    44    1
    40    19    45    1
    41    20    25   ar
    42    20    21   ar
    43    21    22   ar
    44    21    46    1
    45    22    23   ar
    46    22    47    1
    47    23    24   ar
    48    23    48    1
    49    24    25   ar
    50    24    49    1
    51    25    26    1
    52    26    50    1
    53    26    51    1
@<TRIPOS>SUBSTRUCTURE
     1 ZINC000550782577        1 TEMP              0 ****  ****    0 ROOT


##########                                Name:    ZINC000431691749
##########                DOCK_Rotatable_Bonds:                   4
##########                         Heavy_Atoms:                  24
##########                    Molecular_Weight:             328.454
##########                DOCK_Rotatable_Bonds:                   4
##########                       Formal_Charge:         -0.00999957
##########                     HBond_Acceptors:                   4
##########                        HBond_Donors:                   0
##########                         Heavy_Atoms:                  24
##########                          Grid_Score:          -19.052677
##########                     Grid_vdw_energy:          -19.420933
##########                      Grid_es_energy:            0.368255
##########           Internal_energy_repulsive:          139.713638

@<TRIPOS>MOLECULE
ZINC000431691749
 52 54 1 0 0
SMALL
USER_CHARGES


@<TRIPOS>ATOM
      1 C1         -8.5395    0.1295   65.6408 C.3     1  ZINC000431691749   -0.1200
      2 C2         -9.4212    0.9584   64.7426 C.ar    1  ZINC000431691749   -0.0800
      3 C3        -10.1251    2.0286   65.2617 C.ar    1  ZINC000431691749   -0.1200
      4 C4        -10.9339    2.7890   64.4378 C.ar    1  ZINC000431691749   -0.1100
      5 C5        -11.0382    2.4794   63.0948 C.ar    1  ZINC000431691749   -0.1100
      6 C6        -10.3334    1.4094   62.5753 C.ar    1  ZINC000431691749   -0.0800
      7 C7        -10.4474    1.0716   61.1110 C.3     1  ZINC000431691749    0.2000
      8 H8         -9.6318    0.4066   60.8271 H       1  ZINC000431691749    0.1100
      9 N9        -11.7288    0.4068   60.8617 N.am    1  ZINC000431691749   -0.5700
     10 C10       -12.8056    0.5125   61.6653 C.2     1  ZINC000431691749    0.5200
     11 O11       -12.8932    1.1514   62.6919 O.2     1  ZINC000431691749   -0.4400
     12 C12       -13.8846   -0.3328   61.0181 C.3     1  ZINC000431691749    0.0900
     13 H13       -14.1862   -1.1434   61.6815 H       1  ZINC000431691749    0.1300
     14 C14       -15.0910    0.5299   60.6420 C.3     1  ZINC000431691749   -0.1500
     15 N15       -13.2290   -0.8668   59.8117 N.am    1  ZINC000431691749   -0.6000
     16 C16       -13.8265   -1.7546   58.8112 C.3     1  ZINC000431691749    0.1500
     17 C17       -14.4147   -1.0108   57.6005 C.3     1  ZINC000431691749   -0.1600
     18 C18       -13.0250   -1.1282   56.9527 C.3     1  ZINC000431691749   -0.1400
     19 C19       -12.8027   -2.3647   57.8394 C.3     1  ZINC000431691749   -0.1500
     20 C20       -11.9767   -0.3758   59.8052 C.2     1  ZINC000431691749    0.7000
     21 O21       -11.1592   -0.6214   58.9400 O.2     1  ZINC000431691749   -0.5300
     22 C22       -10.3697    2.3561   60.2836 C.3     1  ZINC000431691749   -0.0700
     23 C23        -9.4385    3.3533   60.9760 C.3     1  ZINC000431691749   -0.1400
     24 C24        -9.8261    2.0333   58.8904 C.3     1  ZINC000431691749   -0.1400
     25 C25       -11.7671    2.9665   60.1570 C.3     1  ZINC000431691749   -0.1600
     26 C26        -9.5215    0.6519   63.3982 C.ar    1  ZINC000431691749   -0.1100
     27 H27        -7.5355    0.5534   65.6560 H       1  ZINC000431691749    0.0700
     28 H28        -8.9489    0.1282   66.6510 H       1  ZINC000431691749    0.0700
     29 H29        -8.4967   -0.8927   65.2648 H       1  ZINC000431691749    0.0700
     30 H30       -10.0436    2.2706   66.3111 H       1  ZINC000431691749    0.1200
     31 H31       -11.4845    3.6249   64.8436 H       1  ZINC000431691749    0.1200
     32 H32       -11.6706    3.0731   62.4512 H       1  ZINC000431691749    0.1100
     33 H33       -14.7748    1.3192   59.9601 H       1  ZINC000431691749    0.0700
     34 H34       -15.8438   -0.0906   60.1556 H       1  ZINC000431691749    0.0800
     35 H35       -15.5139    0.9753   61.5424 H       1  ZINC000431691749    0.0800
     36 H36       -14.5054   -2.4875   59.2471 H       1  ZINC000431691749    0.1000
     37 H37       -15.1891   -1.5719   57.0775 H       1  ZINC000431691749    0.0900
     38 H38       -14.7090    0.0156   57.8196 H       1  ZINC000431691749    0.0700
     39 H39       -13.0578   -1.3551   55.8871 H       1  ZINC000431691749    0.0700
     40 H40       -12.3614   -0.2964   57.1890 H       1  ZINC000431691749    0.0800
     41 H41       -11.7957   -2.4315   58.2512 H       1  ZINC000431691749    0.1000
     42 H42       -13.1364   -3.2960   57.3816 H       1  ZINC000431691749    0.0900
     43 H43        -8.4431    2.9185   61.0663 H       1  ZINC000431691749    0.0600
     44 H44        -9.3831    4.2684   60.3865 H       1  ZINC000431691749    0.0600
     45 H45        -9.8258    3.5833   61.9686 H       1  ZINC000431691749    0.0600
     46 H46       -10.4895    1.3228   58.3972 H       1  ZINC000431691749    0.0500
     47 H47        -9.7707    2.9484   58.3009 H       1  ZINC000431691749    0.0600
     48 H48        -8.8306    1.5985   58.9807 H       1  ZINC000431691749    0.0500
     49 H49       -12.3834    2.6400   60.9945 H       1  ZINC000431691749    0.0700
     50 H50       -11.6906    4.0537   60.1641 H       1  ZINC000431691749    0.0400
     51 H51       -12.2225    2.6404   59.2219 H       1  ZINC000431691749    0.1000
     52 H52        -8.9708   -0.1839   62.9924 H       1  ZINC000431691749    0.1300
@<TRIPOS>BOND
     1     1     2    1
     2     1    27    1
     3     1    28    1
     4     1    29    1
     5     2    26   ar
     6     2     3   ar
     7     3     4   ar
     8     3    30    1
     9     4     5   ar
    10     4    31    1
    11     5     6   ar
    12     5    32    1
    13     6     7    1
    14     6    26   ar
    15     7     8    1
    16     7     9    1
    17     7    22    1
    18     9    20   am
    19     9    10   am
    20    10    11    2
    21    10    12    1
    22    12    13    1
    23    12    14    1
    24    12    15    1
    25    14    33    1
    26    14    34    1
    27    14    35    1
    28    15    16    1
    29    15    20   am
    30    16    19    1
    31    16    17    1
    32    16    36    1
    33    17    18    1
    34    17    37    1
    35    17    38    1
    36    18    19    1
    37    18    39    1
    38    18    40    1
    39    19    41    1
    40    19    42    1
    41    20    21    2
    42    22    23    1
    43    22    24    1
    44    22    25    1
    45    23    43    1
    46    23    44    1
    47    23    45    1
    48    24    46    1
    49    24    47    1
    50    24    48    1
    51    25    49    1
    52    25    50    1
    53    25    51    1
    54    26    52    1
@<TRIPOS>SUBSTRUCTURE
     1 ZINC000431691749        1 TEMP              0 ****  ****    0 ROOT


##########                                Name:    ZINC000950547210
##########                DOCK_Rotatable_Bonds:                   5
##########                         Heavy_Atoms:                  25
##########                    Molecular_Weight:              346.47
##########                DOCK_Rotatable_Bonds:                   5
##########                       Formal_Charge:         5.58794e-07
##########                     HBond_Acceptors:                   5
##########                        HBond_Donors:                   1
##########                         Heavy_Atoms:                  25
##########                          Grid_Score:          -18.099686
##########                     Grid_vdw_energy:          -17.005949
##########                      Grid_es_energy:           -1.093737
##########           Internal_energy_repulsive:           22.160378

@<TRIPOS>MOLECULE
ZINC000950547210
 55 58 1 0 0
SMALL
USER_CHARGES


@<TRIPOS>ATOM
      1 O1        -13.3350    2.1820   60.1332 O.2     1  ZINC000950547210   -0.5200
      2 C2        -12.3753    2.6932   60.6705 C.2     1  ZINC000950547210    0.5200
      3 N3        -11.2329    2.8743   59.9791 N.am    1  ZINC000950547210   -0.7300
      4 C4        -11.1481    2.4482   58.5800 C.3     1  ZINC000950547210    0.1300
      5 H5        -11.9322    1.7197   58.3734 H       1  ZINC000950547210    0.0900
      6 C6        -11.3247    3.6621   57.6647 C.3     1  ZINC000950547210   -0.1300
      7 C7        -11.2691    3.2132   56.2027 C.3     1  ZINC000950547210   -0.1300
      8 C8         -9.9006    2.5870   55.9167 C.3     1  ZINC000950547210    0.1000
      9 N9         -9.6607    1.5109   56.8878 N.am    1  ZINC000950547210   -0.6100
     10 C10        -9.3383    0.2700   56.4721 C.2     1  ZINC000950547210    0.5600
     11 O11        -9.1422   -0.6121   57.2860 O.2     1  ZINC000950547210   -0.5200
     12 C12        -9.2238   -0.0173   55.0340 C.2     1  ZINC000950547210   -0.1400
     13 C13        -8.2121    0.4981   54.3592 C.2     1  ZINC000950547210   -0.1500
     14 C14        -8.0195    0.2659   52.8870 C.3     1  ZINC000950547210    0.0900
     15 O15        -8.8268   -0.8303   52.4532 O.3     1  ZINC000950547210   -0.3700
     16 C16       -10.1952   -0.7172   52.8623 C.3     1  ZINC000950547210    0.0600
     17 C17       -10.2595   -0.8930   54.3835 C.3     1  ZINC000950547210   -0.1100
     18 C18        -9.7786    1.8126   58.3210 C.3     1  ZINC000950547210    0.1000
     19 C19       -12.4626    3.1315   62.1098 C.3     1  ZINC000950547210   -0.1000
     20 H20       -13.5007    3.3492   62.3611 H       1  ZINC000950547210    0.1000
     21 C21       -11.6144    4.3886   62.3124 C.3     1  ZINC000950547210   -0.1100
     22 C22       -10.5286    4.1090   63.3535 C.3     1  ZINC000950547210   -0.0900
     23 C23       -11.1826    3.7158   64.6795 C.3     1  ZINC000950547210   -0.1100
     24 C24       -12.0307    2.4587   64.4769 C.3     1  ZINC000950547210   -0.1100
     25 C25       -11.9422    2.0137   63.0157 C.3     1  ZINC000950547210   -0.0600
     26 C26       -10.4851    1.7081   62.6631 C.3     1  ZINC000950547210   -0.1300
     27 C27        -9.6369    2.9654   62.8657 C.3     1  ZINC000950547210   -0.1200
     28 H28       -10.4666    3.2867   60.4078 H       1  ZINC000950547210    0.4000
     29 H29       -12.2885    4.1303   57.8645 H       1  ZINC000950547210    0.0800
     30 H30       -10.5264    4.3794   57.8549 H       1  ZINC000950547210    0.0700
     31 H31       -12.0517    2.4772   56.0182 H       1  ZINC000950547210    0.0700
     32 H32       -11.4183    4.0746   55.5517 H       1  ZINC000950547210    0.0900
     33 H33        -9.8903    2.1769   54.9069 H       1  ZINC000950547210    0.0900
     34 H34        -9.1241    3.3460   56.0129 H       1  ZINC000950547210    0.0700
     35 H35        -7.4954    1.1108   54.8859 H       1  ZINC000950547210    0.1200
     36 H36        -8.3047    1.1639   52.3391 H       1  ZINC000950547210    0.0700
     37 H37        -6.9709    0.0427   52.6906 H       1  ZINC000950547210    0.1100
     38 H38       -10.5799    0.2647   52.5867 H       1  ZINC000950547210    0.0600
     39 H39       -10.7873   -1.4947   52.3794 H       1  ZINC000950547210    0.1000
     40 H40       -10.0720   -1.9365   54.6366 H       1  ZINC000950547210    0.0900
     41 H41       -11.2482   -0.6051   54.7407 H       1  ZINC000950547210    0.0900
     42 H42        -8.9924    2.5086   58.6138 H       1  ZINC000950547210    0.0700
     43 H43        -9.6873    0.8918   58.8970 H       1  ZINC000950547210    0.1000
     44 H44       -11.1485    4.6688   61.3677 H       1  ZINC000950547210    0.0700
     45 H45       -12.2496    5.2034   62.6599 H       1  ZINC000950547210    0.0700
     46 H46        -9.9243    5.0046   63.4977 H       1  ZINC000950547210    0.0700
     47 H47       -10.4090    3.5166   65.4212 H       1  ZINC000950547210    0.0600
     48 H48       -11.8178    4.5306   65.0270 H       1  ZINC000950547210    0.0600
     49 H49       -11.6600    1.6624   65.1224 H       1  ZINC000950547210    0.0700
     50 H50       -13.0688    2.6764   64.7282 H       1  ZINC000950547210    0.0600
     51 H51       -12.5464    1.1181   62.8715 H       1  ZINC000950547210    0.0800
     52 H52       -10.1143    0.9119   63.3085 H       1  ZINC000950547210    0.0600
     53 H53       -10.4219    1.3912   61.6221 H       1  ZINC000950547210    0.0900
     54 H54        -9.1710    3.2454   61.9210 H       1  ZINC000950547210    0.0600
     55 H55        -8.8634    2.7662   63.6074 H       1  ZINC000950547210    0.0600
@<TRIPOS>BOND
     1     1     2    2
     2     2     3   am
     3     2    19    1
     4     3     4    1
     5     3    28    1
     6     4     5    1
     7     4    18    1
     8     4     6    1
     9     6     7    1
    10     6    29    1
    11     6    30    1
    12     7     8    1
    13     7    31    1
    14     7    32    1
    15     8     9    1
    16     8    33    1
    17     8    34    1
    18     9    10   am
    19     9    18    1
    20    10    11    2
    21    10    12    1
    22    12    17    1
    23    12    13    2
    24    13    14    1
    25    13    35    1
    26    14    15    1
    27    14    36    1
    28    14    37    1
    29    15    16    1
    30    16    17    1
    31    16    38    1
    32    16    39    1
    33    17    40    1
    34    17    41    1
    35    18    42    1
    36    18    43    1
    37    19    20    1
    38    19    25    1
    39    19    21    1
    40    21    22    1
    41    21    44    1
    42    21    45    1
    43    22    27    1
    44    22    23    1
    45    22    46    1
    46    23    24    1
    47    23    47    1
    48    23    48    1
    49    24    25    1
    50    24    49    1
    51    24    50    1
    52    25    26    1
    53    25    51    1
    54    26    27    1
    55    26    52    1
    56    26    53    1
    57    27    54    1
    58    27    55    1
@<TRIPOS>SUBSTRUCTURE
     1 ZINC000950547210        1 TEMP              0 ****  ****    0 ROOT


##########                                Name:    ZINC000793092912
##########                DOCK_Rotatable_Bonds:                   4
##########                         Heavy_Atoms:                  26
##########                    Molecular_Weight:               407.2
##########                DOCK_Rotatable_Bonds:                   4
##########                       Formal_Charge:         2.90573e-07
##########                     HBond_Acceptors:                  10
##########                        HBond_Donors:                   1
##########                         Heavy_Atoms:                  26
##########                          Grid_Score:          -18.097363
##########                     Grid_vdw_energy:          -18.378242
##########                      Grid_es_energy:            0.280880
##########           Internal_energy_repulsive:           13.219434

@<TRIPOS>MOLECULE
ZINC000793092912
 40 43 1 0 0
SMALL
USER_CHARGES


@<TRIPOS>ATOM
      1 C1        -11.3583   -0.0637   52.9097 C.3     1  ZINC000793092912   -0.1300
      2 C2        -10.7813   -0.0789   54.3267 C.3     1  ZINC000793092912   -0.0800
      3 C3        -11.4862    0.8291   55.3227 C.3     1  ZINC000793092912   -0.1100
      4 C4        -11.8661    0.1041   56.6001 C.3     1  ZINC000793092912    0.1100
      5 N5        -10.8144   -0.7916   57.0509 N.am    1  ZINC000793092912   -0.5700
      6 C6        -10.3253   -0.6436   58.2980 C.2     1  ZINC000793092912    0.5100
      7 O7         -9.4468   -1.3798   58.6966 O.2     1  ZINC000793092912   -0.5100
      8 C8        -10.8645    0.4264   59.1894 C.2     1  ZINC000793092912    0.5100
      9 O9        -10.5877    1.5892   58.9778 O.2     1  ZINC000793092912   -0.4900
     10 N10       -11.6585    0.1010   60.2287 N.am    1  ZINC000793092912   -0.6400
     11 C11       -12.1634    1.1030   61.0634 C.ar    1  ZINC000793092912    0.1600
     12 C12       -12.9161    2.1397   60.5274 C.ar    1  ZINC000793092912   -0.1200
     13 C13       -13.4156    3.1305   61.3510 C.ar    1  ZINC000793092912   -0.0600
     14 C14       -13.1667    3.0930   62.7134 C.ar    1  ZINC000793092912    0.0200
     15 O15       -13.5380    3.9338   63.7237 O.3     1  ZINC000793092912   -0.2800
     16 C16       -13.3506    3.1823   64.9375 C.3     1  ZINC000793092912    0.5700
     17 F17       -12.9383    4.0227   65.9771 F       1  ZINC000793092912   -0.1100
     18 F18       -14.5274    2.5114   65.2869 F       1  ZINC000793092912   -0.1500
     19 O19       -12.3107    2.2446   64.6024 O.3     1  ZINC000793092912   -0.2800
     20 C20       -12.4117    2.0542   63.2544 C.ar    1  ZINC000793092912    0.0500
     21 C21       -11.9169    1.0586   62.4299 C.ar    1  ZINC000793092912   -0.0900
     22 C22       -10.2707   -1.8430   56.2043 C.3     1  ZINC000793092912    0.1100
     23 C23       -10.0882   -1.3549   54.7749 C.3     1  ZINC000793092912   -0.1200
     24 H24       -10.0577   -2.1464   54.0260 H       1  ZINC000793092912    0.1400
     25 C25        -9.2490   -0.1282   54.4508 C.3     1  ZINC000793092912    0.0000
     26 Cl26       -8.2739   -0.1617   52.9346 Cl      1  ZINC000793092912   -0.0800
     27 Cl27       -8.5119    0.7663   55.8321 Cl      1  ZINC000793092912   -0.0900
     28 H28       -12.1046   -0.8523   52.8127 H       1  ZINC000793092912    0.0800
     29 H29       -11.8241    0.9029   52.7175 H       1  ZINC000793092912    0.0700
     30 H30       -10.5575   -0.2307   52.1895 H       1  ZINC000793092912    0.0700
     31 H31       -10.8257    1.6597   55.5715 H       1  ZINC000793092912    0.0900
     32 H32       -12.3899    1.2259   54.8601 H       1  ZINC000793092912    0.1000
     33 H33       -12.0636    0.8396   57.3797 H       1  ZINC000793092912    0.1100
     34 H34       -12.7727   -0.4746   56.4229 H       1  ZINC000793092912    0.0800
     35 H35       -11.8796   -0.8283   60.3977 H       1  ZINC000793092912    0.4300
     36 H36       -13.1110    2.1718   59.4655 H       1  ZINC000793092912    0.1500
     37 H37       -14.0008    3.9356   60.9319 H       1  ZINC000793092912    0.1500
     38 H38       -11.3364    0.2497   62.8480 H       1  ZINC000793092912    0.1600
     39 H39        -9.2973   -2.1450   56.5909 H       1  ZINC000793092912    0.1400
     40 H40       -10.9431   -2.7006   56.2238 H       1  ZINC000793092912    0.1000
@<TRIPOS>BOND
     1     1     2    1
     2     1    28    1
     3     1    29    1
     4     1    30    1
     5     2    23    1
     6     2    25    1
     7     2     3    1
     8     3     4    1
     9     3    31    1
    10     3    32    1
    11     4     5    1
    12     4    33    1
    13     4    34    1
    14     5     6   am
    15     5    22    1
    16     6     7    2
    17     6     8    1
    18     8     9    2
    19     8    10   am
    20    10    11    1
    21    10    35    1
    22    11    21   ar
    23    11    12   ar
    24    12    13   ar
    25    12    36    1
    26    13    14   ar
    27    13    37    1
    28    14    20   ar
    29    14    15    1
    30    15    16    1
    31    16    17    1
    32    16    18    1
    33    16    19    1
    34    19    20    1
    35    20    21   ar
    36    21    38    1
    37    22    23    1
    38    22    39    1
    39    22    40    1
    40    23    24    1
    41    23    25    1
    42    25    26    1
    43    25    27    1
@<TRIPOS>SUBSTRUCTURE
     1 ZINC000793092912        1 TEMP              0 ****  ****    0 ROOT


##########                                Name:    ZINC000426567005
##########                DOCK_Rotatable_Bonds:                   9
##########                         Heavy_Atoms:                  31
##########                    Molecular_Weight:             417.467
##########                DOCK_Rotatable_Bonds:                   9
##########                       Formal_Charge:        -2.23517e-07
##########                     HBond_Acceptors:                   8
##########                        HBond_Donors:                   4
##########                         Heavy_Atoms:                  31
##########                          Grid_Score:          -18.068556
##########                     Grid_vdw_energy:          -18.594730
##########                      Grid_es_energy:            0.526175
##########           Internal_energy_repulsive:          184.626114

@<TRIPOS>MOLECULE
ZINC000426567005
 54 57 1 0 0
SMALL
USER_CHARGES


@<TRIPOS>ATOM
      1 O1         -1.4226    3.4869   53.3358 O.2     1  ZINC000426567005   -0.4900
      2 C2         -2.0612    3.5184   54.3676 C.2     1  ZINC000426567005    0.5200
      3 N3         -1.4288    3.6791   55.5469 N.am    1  ZINC000426567005   -0.6000
      4 C4         -0.0356    3.8036   55.5824 C.2     1  ZINC000426567005    0.3000
      5 N5          0.6973    3.9639   56.6598 N.2     1  ZINC000426567005   -0.3100
      6 N6          2.0393    4.0456   56.2667 N.pl3   1  ZINC000426567005   -0.4600
      7 C7          2.0895    3.9297   54.9227 C.2     1  ZINC000426567005    0.1100
      8 C8          3.3354    3.9617   54.0755 C.3     1  ZINC000426567005   -0.0300
      9 C9          4.5144    3.2872   54.8196 C.3     1  ZINC000426567005   -0.1200
     10 C10         5.4538    2.8674   53.6619 C.3     1  ZINC000426567005   -0.1300
     11 C11         4.4949    2.4081   52.5441 C.3     1  ZINC000426567005   -0.1300
     12 C12         3.1480    3.1039   52.8071 C.3     1  ZINC000426567005   -0.1200
     13 C13         0.8243    3.7730   54.4721 C.2     1  ZINC000426567005   -0.2600
     14 C14        -3.5474    3.3856   54.3298 C.2     1  ZINC000426567005    0.5200
     15 O15        -4.1885    3.4460   55.3587 O.2     1  ZINC000426567005   -0.4900
     16 N16        -4.1775    3.1984   53.1532 N.am    1  ZINC000426567005   -0.6400
     17 C17        -5.5642    3.0744   53.1179 C.ar    1  ZINC000426567005    0.1700
     18 C18        -6.3669    4.1916   53.3290 C.ar    1  ZINC000426567005   -0.1300
     19 C19        -7.7379    4.0725   53.2947 C.ar    1  ZINC000426567005   -0.0300
     20 C20        -8.3237    2.8278   53.0472 C.ar    1  ZINC000426567005   -0.1500
     21 C21        -9.7931    2.6965   53.0093 C.2     1  ZINC000426567005    0.5600
     22 O22       -10.3047    1.7570   52.4314 O.2     1  ZINC000426567005   -0.5100
     23 N23       -10.5678    3.6181   53.6151 N.am    1  ZINC000426567005   -0.6700
     24 C24       -11.9603    3.4936   53.5791 C.ar    1  ZINC000426567005    0.1400
     25 C25       -12.5462    2.4179   52.9245 C.ar    1  ZINC000426567005   -0.1500
     26 C26       -13.9217    2.2976   52.8913 C.ar    1  ZINC000426567005   -0.1000
     27 C27       -14.7153    3.2469   53.5088 C.ar    1  ZINC000426567005   -0.1300
     28 C28       -14.1352    4.3194   54.1610 C.ar    1  ZINC000426567005   -0.1000
     29 C29       -12.7602    4.4424   54.2029 C.ar    1  ZINC000426567005   -0.1200
     30 C30        -7.5148    1.7079   52.8352 C.ar    1  ZINC000426567005   -0.0600
     31 C31        -6.1444    1.8346   52.8660 C.ar    1  ZINC000426567005   -0.1400
     32 H32        -1.9395    3.7084   56.3711 H       1  ZINC000426567005    0.4300
     33 H33         2.7997    4.1647   56.8571 H       1  ZINC000426567005    0.4400
     34 H34         3.5875    4.9879   53.8082 H       1  ZINC000426567005    0.1100
     35 H35         5.0104    3.9971   55.4815 H       1  ZINC000426567005    0.0800
     36 H36         4.1718    2.4140   55.3749 H       1  ZINC000426567005    0.0700
     37 H37         6.0504    3.7162   53.3278 H       1  ZINC000426567005    0.0700
     38 H38         6.0988    2.0455   53.9729 H       1  ZINC000426567005    0.0700
     39 H39         4.8855    2.7063   51.5712 H       1  ZINC000426567005    0.0700
     40 H40         4.3696    1.3259   52.5810 H       1  ZINC000426567005    0.0700
     41 H41         2.3690    2.3594   52.9717 H       1  ZINC000426567005    0.0600
     42 H42         2.8848    3.7398   51.9618 H       1  ZINC000426567005    0.0700
     43 H43         0.5269    3.6529   53.4409 H       1  ZINC000426567005    0.1700
     44 H44        -3.6651    3.1500   52.3310 H       1  ZINC000426567005    0.4300
     45 H45        -5.9137    5.1531   53.5201 H       1  ZINC000426567005    0.1500
     46 H46        -8.3602    4.9396   53.4593 H       1  ZINC000426567005    0.1400
     47 H47       -10.1596    4.3676   54.0760 H       1  ZINC000426567005    0.4100
     48 H48       -11.9269    1.6763   52.4417 H       1  ZINC000426567005    0.1300
     49 H49       -14.3779    1.4616   52.3821 H       1  ZINC000426567005    0.1300
     50 H50       -15.7907    3.1505   53.4814 H       1  ZINC000426567005    0.1200
     51 H51       -14.7578    5.0594   54.6418 H       1  ZINC000426567005    0.1300
     52 H52       -12.3076    5.2801   54.7127 H       1  ZINC000426567005    0.1300
     53 H53        -7.9644    0.7447   52.6440 H       1  ZINC000426567005    0.1300
     54 H54        -5.5188    0.9696   52.7022 H       1  ZINC000426567005    0.1400
@<TRIPOS>BOND
     1     1     2    2
     2     2     3   am
     3     2    14    1
     4     3     4    1
     5     3    32    1
     6     4    13    1
     7     4     5    2
     8     5     6    1
     9     6     7    1
    10     6    33    1
    11     7     8    1
    12     7    13    2
    13     8    12    1
    14     8     9    1
    15     8    34    1
    16     9    10    1
    17     9    35    1
    18     9    36    1
    19    10    11    1
    20    10    37    1
    21    10    38    1
    22    11    12    1
    23    11    39    1
    24    11    40    1
    25    12    41    1
    26    12    42    1
    27    13    43    1
    28    14    15    2
    29    14    16   am
    30    16    17    1
    31    16    44    1
    32    17    31   ar
    33    17    18   ar
    34    18    19   ar
    35    18    45    1
    36    19    20   ar
    37    19    46    1
    38    20    21    1
    39    20    30   ar
    40    21    22    2
    41    21    23   am
    42    23    24    1
    43    23    47    1
    44    24    29   ar
    45    24    25   ar
    46    25    26   ar
    47    25    48    1
    48    26    27   ar
    49    26    49    1
    50    27    28   ar
    51    27    50    1
    52    28    29   ar
    53    28    51    1
    54    29    52    1
    55    30    31   ar
    56    30    53    1
    57    31    54    1
@<TRIPOS>SUBSTRUCTURE
     1 ZINC000426567005        1 TEMP              0 ****  ****    0 ROOT


##########                                Name:    ZINC000482910431
##########                DOCK_Rotatable_Bonds:                   7
##########                         Heavy_Atoms:                  29
##########                    Molecular_Weight:             414.867
##########                DOCK_Rotatable_Bonds:                   7
##########                       Formal_Charge:          -0.0300001
##########                     HBond_Acceptors:                   8
##########                        HBond_Donors:                   2
##########                         Heavy_Atoms:                  29
##########                          Grid_Score:          -17.718201
##########                     Grid_vdw_energy:          -17.041416
##########                      Grid_es_energy:           -0.676785
##########           Internal_energy_repulsive:           24.849543

@<TRIPOS>MOLECULE
ZINC000482910431
 49 51 1 0 0
SMALL
USER_CHARGES


@<TRIPOS>ATOM
      1 C1        -12.9272    2.7509   50.8171 C.3     1  ZINC000482910431   -0.1500
      2 C2        -13.4483    1.7277   51.8281 C.3     1  ZINC000482910431    0.0800
      3 C3        -14.5760    2.3531   52.6517 C.3     1  ZINC000482910431   -0.1400
      4 C4        -13.9598    0.5474   51.1126 C.1     1  ZINC000482910431    0.2100
      5 N5        -14.3546   -0.3635   50.5603 N.1     1  ZINC000482910431   -0.4300
      6 C6        -12.3273    1.3121   52.7455 C.ar    1  ZINC000482910431   -0.1000
      7 C7        -11.0276    1.6890   52.4613 C.ar    1  ZINC000482910431   -0.0900
      8 C8         -9.9979    1.3101   53.3003 C.ar    1  ZINC000482910431   -0.1200
      9 C9        -10.2691    0.5500   54.4303 C.ar    1  ZINC000482910431    0.1700
     10 N10        -9.2281    0.1649   55.2828 N.am    1  ZINC000482910431   -0.6800
     11 C11        -9.1505    0.6786   56.5263 C.2     1  ZINC000482910431    0.7100
     12 O12        -9.9847    1.4767   56.9075 O.2     1  ZINC000482910431   -0.5500
     13 N13        -8.1479    0.3077   57.3473 N.am    1  ZINC000482910431   -0.7300
     14 C14        -8.0625    0.8675   58.6984 C.3     1  ZINC000482910431    0.1400
     15 H15        -7.2691    0.3785   59.2635 H       1  ZINC000482910431    0.1400
     16 C16        -7.8221    2.3938   58.6376 C.3     1  ZINC000482910431   -0.1400
     17 C17        -8.6572    2.8922   59.8379 C.3     1  ZINC000482910431    0.0900
     18 N18        -9.6990    1.8780   60.0381 N.am    1  ZINC000482910431   -0.5600
     19 C19       -10.8662    2.0813   60.7834 C.ar    1  ZINC000482910431    0.2000
     20 C20       -12.0201    2.5347   60.1582 C.ar    1  ZINC000482910431   -0.1600
     21 C21       -13.1715    2.7350   60.8950 C.ar    1  ZINC000482910431   -0.0500
     22 C22       -13.1766    2.4843   62.2551 C.ar    1  ZINC000482910431   -0.1000
     23 Cl23      -14.6253    2.7371   63.1777 Cl      1  ZINC000482910431   -0.0500
     24 C24       -12.0266    2.0311   62.8827 C.ar    1  ZINC000482910431    0.1400
     25 F25       -12.0339    1.7864   64.2113 F       1  ZINC000482910431   -0.1200
     26 C26       -10.8734    1.8243   62.1479 C.ar    1  ZINC000482910431   -0.1900
     27 C27        -9.3874    0.7258   59.4149 C.2     1  ZINC000482910431    0.5000
     28 O28       -10.0710   -0.2760   59.4243 O.2     1  ZINC000482910431   -0.4800
     29 C29       -11.5754    0.1730   54.7130 C.ar    1  ZINC000482910431   -0.1400
     30 C30       -12.6012    0.5596   53.8728 C.ar    1  ZINC000482910431   -0.0900
     31 H31       -12.5485    3.6249   51.3469 H       1  ZINC000482910431    0.0800
     32 H32       -12.1238    2.3053   50.2303 H       1  ZINC000482910431    0.0700
     33 H33       -13.7381    3.0515   50.1535 H       1  ZINC000482910431    0.0700
     34 H34       -15.3868    2.6537   51.9880 H       1  ZINC000482910431    0.0700
     35 H35       -14.9472    1.6242   53.3720 H       1  ZINC000482910431    0.0700
     36 H36       -14.1972    3.2271   53.1815 H       1  ZINC000482910431    0.0800
     37 H37       -10.8172    2.2800   51.5821 H       1  ZINC000482910431    0.1400
     38 H38        -8.9830    1.6046   53.0776 H       1  ZINC000482910431    0.1400
     39 H39        -8.5625   -0.4718   54.9785 H       1  ZINC000482910431    0.4100
     40 H40        -7.4831   -0.3298   57.0435 H       1  ZINC000482910431    0.4000
     41 H41        -6.7662    2.6280   58.7730 H       1  ZINC000482910431    0.1100
     42 H42        -8.1959    2.8106   57.7024 H       1  ZINC000482910431    0.1000
     43 H43        -8.0311    2.9702   60.7266 H       1  ZINC000482910431    0.0900
     44 H44        -9.1093    3.8571   59.6081 H       1  ZINC000482910431    0.1000
     45 H45       -12.0175    2.7312   59.0962 H       1  ZINC000482910431    0.1700
     46 H46       -14.0687    3.0881   60.4083 H       1  ZINC000482910431    0.1500
     47 H47        -9.9772    1.4708   62.6362 H       1  ZINC000482910431    0.1500
     48 H48       -11.7895   -0.4182   55.5911 H       1  ZINC000482910431    0.1300
     49 H49       -13.6174    0.2671   54.0923 H       1  ZINC000482910431    0.1300
@<TRIPOS>BOND
     1     1     2    1
     2     1    31    1
     3     1    32    1
     4     1    33    1
     5     2     3    1
     6     2     4    1
     7     2     6    1
     8     3    34    1
     9     3    35    1
    10     3    36    1
    11     4     5    3
    12     6    30   ar
    13     6     7   ar
    14     7     8   ar
    15     7    37    1
    16     8     9   ar
    17     8    38    1
    18     9    10    1
    19     9    29   ar
    20    10    11   am
    21    10    39    1
    22    11    12    2
    23    11    13   am
    24    13    14    1
    25    13    40    1
    26    14    15    1
    27    14    27    1
    28    14    16    1
    29    16    17    1
    30    16    41    1
    31    16    42    1
    32    17    18    1
    33    17    43    1
    34    17    44    1
    35    18    19    1
    36    18    27   am
    37    19    26   ar
    38    19    20   ar
    39    20    21   ar
    40    20    45    1
    41    21    22   ar
    42    21    46    1
    43    22    23    1
    44    22    24   ar
    45    24    25    1
    46    24    26   ar
    47    26    47    1
    48    27    28    2
    49    29    30   ar
    50    29    48    1
    51    30    49    1
@<TRIPOS>SUBSTRUCTURE
     1 ZINC000482910431        1 TEMP              0 ****  ****    0 ROOT


##########                                Name:    ZINC000462219577
##########                DOCK_Rotatable_Bonds:                   8
##########                         Heavy_Atoms:                  31
##########                    Molecular_Weight:             418.539
##########                DOCK_Rotatable_Bonds:                   8
##########                       Formal_Charge:         -0.00999914
##########                     HBond_Acceptors:                   6
##########                        HBond_Donors:                   2
##########                         Heavy_Atoms:                  31
##########                          Grid_Score:          -17.571285
##########                     Grid_vdw_energy:          -17.823439
##########                      Grid_es_energy:            0.252153
##########           Internal_energy_repulsive:          114.828728

@<TRIPOS>MOLECULE
ZINC000462219577
 61 64 1 0 0
SMALL
USER_CHARGES


@<TRIPOS>ATOM
      1 C1         -9.4697    3.5964   64.1214 C.3     1  ZINC000462219577   -0.0700
      2 C2        -10.2230    2.9358   62.9955 C.2     1  ZINC000462219577    0.0800
      3 N3         -9.8386    1.8735   62.3349 N.2     1  ZINC000462219577   -0.2900
      4 N4        -10.8134    1.5794   61.3729 N.pl3   1  ZINC000462219577   -0.3200
      5 C5        -10.7777    0.5158   60.4604 C.ar    1  ZINC000462219577    0.1500
      6 C6         -9.9205   -0.5553   60.6739 C.ar    1  ZINC000462219577   -0.1100
      7 C7         -9.8875   -1.6017   59.7730 C.ar    1  ZINC000462219577   -0.1000
      8 C8        -10.7068   -1.5831   58.6591 C.ar    1  ZINC000462219577   -0.1200
      9 C9        -11.5612   -0.5175   58.4436 C.ar    1  ZINC000462219577   -0.1000
     10 C10       -11.6034    0.5287   59.3444 C.ar    1  ZINC000462219577   -0.1300
     11 C11       -11.7953    2.5030   61.4806 C.2     1  ZINC000462219577    0.0900
     12 C12       -13.0453    2.5731   60.6419 C.3     1  ZINC000462219577   -0.0800
     13 C13       -12.8108    3.5090   59.4544 C.3     1  ZINC000462219577    0.1700
     14 H14       -12.7655    4.5393   59.8072 H       1  ZINC000462219577    0.1000
     15 C15       -13.9599    3.3622   58.4548 C.3     1  ZINC000462219577   -0.1600
     16 N16       -11.5472    3.1607   58.8003 N.am    1  ZINC000462219577   -0.7400
     17 C17       -10.6818    4.1313   58.4459 C.2     1  ZINC000462219577    0.7100
     18 O18       -10.9494    5.2959   58.6705 O.2     1  ZINC000462219577   -0.5800
     19 N19        -9.5199    3.8110   57.8427 N.am    1  ZINC000462219577   -0.7400
     20 C20        -8.5786    4.8659   57.4591 C.3     1  ZINC000462219577    0.1600
     21 H21        -9.1017    5.8209   57.4091 H       1  ZINC000462219577    0.1000
     22 C22        -7.4543    4.9513   58.4960 C.3     1  ZINC000462219577   -0.1700
     23 C23        -6.6775    3.6321   58.5046 C.3     1  ZINC000462219577    0.0700
     24 O24        -6.1670    3.3729   57.1954 O.3     1  ZINC000462219577   -0.3700
     25 C25        -7.1757    3.2359   56.1924 C.3     1  ZINC000462219577    0.1400
     26 H26        -7.8465    2.4197   56.4604 H       1  ZINC000462219577    0.0600
     27 C27        -6.5273    2.9383   54.8649 C.ar    1  ZINC000462219577   -0.0900
     28 C28        -7.0416    1.9459   54.0515 C.ar    1  ZINC000462219577   -0.0900
     29 C29        -6.4468    1.6729   52.8339 C.ar    1  ZINC000462219577   -0.1200
     30 C30        -5.3380    2.3924   52.4295 C.ar    1  ZINC000462219577   -0.1200
     31 C31        -4.8242    3.3855   53.2426 C.ar    1  ZINC000462219577   -0.1200
     32 C32        -5.4216    3.6614   54.4582 C.ar    1  ZINC000462219577   -0.1100
     33 C33        -7.9742    4.5403   56.0897 C.3     1  ZINC000462219577   -0.1500
     34 C34       -11.4566    3.3491   62.4808 C.2     1  ZINC000462219577   -0.2600
     35 H35        -9.7725    3.1535   65.0702 H       1  ZINC000462219577    0.0800
     36 H36        -8.3992    3.4501   63.9772 H       1  ZINC000462219577    0.0700
     37 H37        -9.6925    4.6633   64.1308 H       1  ZINC000462219577    0.0800
     38 H38        -9.2799   -0.5701   61.5433 H       1  ZINC000462219577    0.1300
     39 H39        -9.2209   -2.4352   59.9385 H       1  ZINC000462219577    0.1300
     40 H40       -10.6789   -2.4024   57.9560 H       1  ZINC000462219577    0.1300
     41 H41       -12.1993   -0.5054   57.5724 H       1  ZINC000462219577    0.1300
     42 H42       -12.2711    1.3607   59.1755 H       1  ZINC000462219577    0.1300
     43 H43       -13.2938    1.5770   60.2759 H       1  ZINC000462219577    0.0900
     44 H44       -13.8682    2.9535   61.2472 H       1  ZINC000462219577    0.1100
     45 H45       -14.0053    2.3319   58.1021 H       1  ZINC000462219577    0.0600
     46 H46       -14.9001    3.6214   58.9415 H       1  ZINC000462219577    0.0700
     47 H47       -13.7929    4.0289   57.6088 H       1  ZINC000462219577    0.0700
     48 H48       -11.3332    2.2315   58.6222 H       1  ZINC000462219577    0.3900
     49 H49        -9.3070    2.8819   57.6625 H       1  ZINC000462219577    0.3900
     50 H50        -6.7813    5.7687   58.2370 H       1  ZINC000462219577    0.0800
     51 H51        -7.8817    5.1288   59.4829 H       1  ZINC000462219577    0.0800
     52 H52        -5.8496    3.7024   59.2102 H       1  ZINC000462219577    0.1000
     53 H53        -7.3417    2.8210   58.8030 H       1  ZINC000462219577    0.0500
     54 H54        -7.9079    1.3837   54.3675 H       1  ZINC000462219577    0.1300
     55 H55        -6.8482    0.8972   52.1987 H       1  ZINC000462219577    0.1200
     56 H56        -4.8729    2.1787   51.4785 H       1  ZINC000462219577    0.1200
     57 H57        -3.9577    3.9474   52.9267 H       1  ZINC000462219577    0.1200
     58 H58        -5.0202    4.4371   55.0934 H       1  ZINC000462219577    0.1200
     59 H59        -8.7719    4.4223   55.3564 H       1  ZINC000462219577    0.0800
     60 H60        -7.3119    5.3496   55.7821 H       1  ZINC000462219577    0.0900
     61 H61       -12.0333    4.1980   62.8174 H       1  ZINC000462219577    0.1500
@<TRIPOS>BOND
     1     1     2    1
     2     1    35    1
     3     1    36    1
     4     1    37    1
     5     2    34    1
     6     2     3    2
     7     3     4    1
     8     4     5    1
     9     4    11    1
    10     5    10   ar
    11     5     6   ar
    12     6     7   ar
    13     6    38    1
    14     7     8   ar
    15     7    39    1
    16     8     9   ar
    17     8    40    1
    18     9    10   ar
    19     9    41    1
    20    10    42    1
    21    11    12    1
    22    11    34    2
    23    12    13    1
    24    12    43    1
    25    12    44    1
    26    13    14    1
    27    13    15    1
    28    13    16    1
    29    15    45    1
    30    15    46    1
    31    15    47    1
    32    16    17   am
    33    16    48    1
    34    17    18    2
    35    17    19   am
    36    19    20    1
    37    19    49    1
    38    20    21    1
    39    20    33    1
    40    20    22    1
    41    22    23    1
    42    22    50    1
    43    22    51    1
    44    23    24    1
    45    23    52    1
    46    23    53    1
    47    24    25    1
    48    25    26    1
    49    25    27    1
    50    25    33    1
    51    27    32   ar
    52    27    28   ar
    53    28    29   ar
    54    28    54    1
    55    29    30   ar
    56    29    55    1
    57    30    31   ar
    58    30    56    1
    59    31    32   ar
    60    31    57    1
    61    32    58    1
    62    33    59    1
    63    33    60    1
    64    34    61    1
@<TRIPOS>SUBSTRUCTURE
     1 ZINC000462219577        1 TEMP              0 ****  ****    0 ROOT


##########                                Name:    ZINC000569288350
##########                DOCK_Rotatable_Bonds:                   3
##########                         Heavy_Atoms:                  19
##########                    Molecular_Weight:             393.559
##########                DOCK_Rotatable_Bonds:                   3
##########                       Formal_Charge:           0.0299999
##########                     HBond_Acceptors:                   5
##########                        HBond_Donors:                   1
##########                         Heavy_Atoms:                  19
##########                          Grid_Score:          -16.763672
##########                     Grid_vdw_energy:          -15.799457
##########                      Grid_es_energy:           -0.964216
##########           Internal_energy_repulsive:            5.127447

@<TRIPOS>MOLECULE
ZINC000569288350
 26 27 1 0 0
SMALL
USER_CHARGES


@<TRIPOS>ATOM
      1 O1        -10.7017   -1.0198   60.5952 O.2     1  ZINC000569288350   -0.4800
      2 C2        -10.4788    0.1587   60.7949 C.2     1  ZINC000569288350    0.5700
      3 N3        -10.3355    1.0032   59.7543 N.am    1  ZINC000569288350   -0.6600
      4 C4        -10.4375    0.5227   58.4443 C.ar    1  ZINC000569288350    0.1800
      5 C5        -11.6616    0.0834   57.9579 C.ar    1  ZINC000569288350   -0.1200
      6 C6        -11.7607   -0.3908   56.6641 C.ar    1  ZINC000569288350   -0.0600
      7 C7        -10.6426   -0.4294   55.8522 C.ar    1  ZINC000569288350   -0.1500
      8 C8         -9.4191    0.0077   56.3324 C.ar    1  ZINC000569288350    0.1300
      9 F9         -8.3282   -0.0307   55.5364 F       1  ZINC000569288350   -0.1200
     10 C10        -9.3152    0.4895   57.6257 C.ar    1  ZINC000569288350   -0.1000
     11 Cl11       -7.7826    1.0382   58.2287 Cl      1  ZINC000569288350   -0.0400
     12 C12       -10.3711    0.6657   62.1771 C.ar    1  ZINC000569288350   -0.1400
     13 C13        -9.2152    0.4239   62.9264 C.ar    1  ZINC000569288350    0.1400
     14 F14        -8.1920   -0.2745   62.3875 F       1  ZINC000569288350   -0.1200
     15 C15        -9.1229    0.9026   64.2207 C.ar    1  ZINC000569288350   -0.1300
     16 C16       -10.1694    1.6173   64.7727 C.ar    1  ZINC000569288350   -0.0600
     17 C17       -11.3163    1.8595   64.0363 C.ar    1  ZINC000569288350   -0.0900
     18 C18       -11.4212    1.3946   62.7419 C.ar    1  ZINC000569288350   -0.0500
     19 I19       -13.1589    1.7638   61.6314 I       1  ZINC000569288350    0.0000
     20 H20       -10.1617    1.9441   59.9137 H       1  ZINC000569288350    0.4200
     21 H21       -12.5362    0.1120   58.5911 H       1  ZINC000569288350    0.1600
     22 H22       -12.7131   -0.7324   56.2865 H       1  ZINC000569288350    0.1500
     23 H23       -10.7231   -0.8013   54.8414 H       1  ZINC000569288350    0.1500
     24 H24        -8.2313    0.7173   64.8014 H       1  ZINC000569288350    0.1500
     25 H25       -10.0921    1.9884   65.7839 H       1  ZINC000569288350    0.1500
     26 H26       -12.1296    2.4185   64.4750 H       1  ZINC000569288350    0.1500
@<TRIPOS>BOND
     1     1     2    2
     2     2     3   am
     3     2    12    1
     4     3     4    1
     5     3    20    1
     6     4    10   ar
     7     4     5   ar
     8     5     6   ar
     9     5    21    1
    10     6     7   ar
    11     6    22    1
    12     7     8   ar
    13     7    23    1
    14     8     9    1
    15     8    10   ar
    16    10    11    1
    17    12    18   ar
    18    12    13   ar
    19    13    14    1
    20    13    15   ar
    21    15    16   ar
    22    15    24    1
    23    16    17   ar
    24    16    25    1
    25    17    18   ar
    26    17    26    1
    27    18    19    1
@<TRIPOS>SUBSTRUCTURE
     1 ZINC000569288350        1 TEMP              0 ****  ****    0 ROOT


##########                                Name:    ZINC000653668607
##########                DOCK_Rotatable_Bonds:                   5
##########                         Heavy_Atoms:                  28
##########                    Molecular_Weight:             379.459
##########                DOCK_Rotatable_Bonds:                   5
##########                       Formal_Charge:          0.00999918
##########                     HBond_Acceptors:                   6
##########                        HBond_Donors:                   2
##########                         Heavy_Atoms:                  28
##########                          Grid_Score:          -15.509788
##########                     Grid_vdw_energy:          -15.537188
##########                      Grid_es_energy:            0.027400
##########           Internal_energy_repulsive:            7.305848

@<TRIPOS>MOLECULE
ZINC000653668607
 53 56 1 0 0
SMALL
USER_CHARGES


@<TRIPOS>ATOM
      1 C1        -10.5060    1.8456   53.4178 C.3     1  ZINC000653668607    0.0300
      2 O2         -9.2940    1.0886   53.4079 O.3     1  ZINC000653668607   -0.3200
      3 C3         -8.1737    1.7117   53.8587 C.ar    1  ZINC000653668607    0.1300
      4 C4         -7.2871    2.2879   52.9607 C.ar    1  ZINC000653668607   -0.2000
      5 C5         -6.1548    2.9203   53.4286 C.ar    1  ZINC000653668607   -0.0800
      6 C6         -5.8930    2.9861   54.7912 C.ar    1  ZINC000653668607   -0.1000
      7 C7         -4.6444    3.7056   55.2305 C.3     1  ZINC000653668607   -0.0800
      8 C8         -4.2819    3.3260   56.6647 C.3     1  ZINC000653668607   -0.1200
      9 C9         -5.5246    3.5127   57.5434 C.3     1  ZINC000653668607   -0.1100
     10 C10        -6.5423    2.4356   57.1737 C.3     1  ZINC000653668607   -0.0600
     11 H11        -6.1705    1.4635   57.4975 H       1  ZINC000653668607    0.1000
     12 C12        -7.8473    2.7253   57.8693 C.2     1  ZINC000653668607    0.5200
     13 O13        -8.3350    3.8340   57.8064 O.2     1  ZINC000653668607   -0.5100
     14 N14        -8.4726    1.7524   58.5614 N.am    1  ZINC000653668607   -0.6700
     15 C15        -9.6842    2.0213   59.2073 C.ar    1  ZINC000653668607    0.1500
     16 C16        -9.6857    2.4988   60.5117 C.ar    1  ZINC000653668607   -0.1100
     17 C17       -10.8820    2.7646   61.1503 C.ar    1  ZINC000653668607   -0.0900
     18 C18       -12.0797    2.5565   60.4943 C.ar    1  ZINC000653668607   -0.1200
     19 C19       -12.0849    2.0786   59.1897 C.ar    1  ZINC000653668607    0.1700
     20 N20       -13.2987    1.8676   58.5258 N.am    1  ZINC000653668607   -0.5800
     21 C21       -13.6900    0.5045   58.1630 C.3     1  ZINC000653668607    0.1100
     22 C22       -15.2192    0.4083   58.1449 C.3     1  ZINC000653668607   -0.1500
     23 C23       -15.7644    1.4807   57.1958 C.3     1  ZINC000653668607    0.1100
     24 N24       -15.2606    2.7908   57.6113 N.am    1  ZINC000653668607   -0.7400
     25 C25       -14.0825    2.9179   58.2399 C.2     1  ZINC000653668607    0.7100
     26 O26       -13.7055    4.0304   58.5542 O.2     1  ZINC000653668607   -0.5800
     27 C27       -10.8856    1.8167   58.5436 C.ar    1  ZINC000653668607   -0.1300
     28 C28        -6.7690    2.4098   55.6846 C.ar    1  ZINC000653668607   -0.0300
     29 C29        -7.9139    1.7798   55.2171 C.ar    1  ZINC000653668607   -0.1500
     30 H30       -10.7331    2.1545   54.4381 H       1  ZINC000653668607    0.0600
     31 H31       -10.3885    2.7279   52.7886 H       1  ZINC000653668607    0.0600
     32 H32       -11.3209    1.2317   53.0341 H       1  ZINC000653668607    0.1000
     33 H33        -7.4827    2.2409   51.8996 H       1  ZINC000653668607    0.1300
     34 H34        -5.4647    3.3685   52.7291 H       1  ZINC000653668607    0.1300
     35 H35        -3.8219    3.4349   54.5684 H       1  ZINC000653668607    0.0800
     36 H36        -4.8109    4.7813   55.1746 H       1  ZINC000653668607    0.0800
     37 H37        -3.9612    2.2848   56.6991 H       1  ZINC000653668607    0.0700
     38 H38        -3.4789    3.9700   57.0231 H       1  ZINC000653668607    0.0800
     39 H39        -5.2499    3.4133   58.5935 H       1  ZINC000653668607    0.0700
     40 H40        -5.9537    4.4991   57.3674 H       1  ZINC000653668607    0.0800
     41 H41        -8.0825    0.8656   58.6117 H       1  ZINC000653668607    0.4100
     42 H42        -8.7510    2.6621   61.0274 H       1  ZINC000653668607    0.1400
     43 H43       -10.8805    3.1355   62.1646 H       1  ZINC000653668607    0.1300
     44 H44       -13.0130    2.7651   60.9960 H       1  ZINC000653668607    0.1200
     45 H45       -13.2982    0.2641   57.1746 H       1  ZINC000653668607    0.0700
     46 H46       -13.2895   -0.1965   58.8952 H       1  ZINC000653668607    0.0900
     47 H47       -15.5198   -0.5787   57.7935 H       1  ZINC000653668607    0.1000
     48 H48       -15.6084    0.5763   59.1493 H       1  ZINC000653668607    0.0800
     49 H49       -15.4341    1.2691   56.1789 H       1  ZINC000653668607    0.0700
     50 H50       -16.8538    1.4807   57.2334 H       1  ZINC000653668607    0.0900
     51 H51       -15.7912    3.5828   57.4317 H       1  ZINC000653668607    0.4200
     52 H52       -10.8871    1.4455   57.5294 H       1  ZINC000653668607    0.1300
     53 H53        -8.6048    1.3349   55.9178 H       1  ZINC000653668607    0.1200
@<TRIPOS>BOND
     1     1     2    1
     2     1    30    1
     3     1    31    1
     4     1    32    1
     5     2     3    1
     6     3    29   ar
     7     3     4   ar
     8     4     5   ar
     9     4    33    1
    10     5     6   ar
    11     5    34    1
    12     6    28   ar
    13     6     7    1
    14     7     8    1
    15     7    35    1
    16     7    36    1
    17     8     9    1
    18     8    37    1
    19     8    38    1
    20     9    10    1
    21     9    39    1
    22     9    40    1
    23    10    11    1
    24    10    12    1
    25    10    28    1
    26    12    13    2
    27    12    14   am
    28    14    15    1
    29    14    41    1
    30    15    27   ar
    31    15    16   ar
    32    16    17   ar
    33    16    42    1
    34    17    18   ar
    35    17    43    1
    36    18    19   ar
    37    18    44    1
    38    19    20    1
    39    19    27   ar
    40    20    25   am
    41    20    21    1
    42    21    22    1
    43    21    45    1
    44    21    46    1
    45    22    23    1
    46    22    47    1
    47    22    48    1
    48    23    24    1
    49    23    49    1
    50    23    50    1
    51    24    25   am
    52    24    51    1
    53    25    26    2
    54    27    52    1
    55    28    29   ar
    56    29    53    1
@<TRIPOS>SUBSTRUCTURE
     1 ZINC000653668607        1 TEMP              0 ****  ****    0 ROOT


##########                                Name:    ZINC001220212140
##########                DOCK_Rotatable_Bonds:                   6
##########                         Heavy_Atoms:                  28
##########                    Molecular_Weight:             379.459
##########                DOCK_Rotatable_Bonds:                   6
##########                       Formal_Charge:         -0.00999925
##########                     HBond_Acceptors:                   6
##########                        HBond_Donors:                   1
##########                         Heavy_Atoms:                  28
##########                          Grid_Score:          -15.426687
##########                     Grid_vdw_energy:          -13.927733
##########                      Grid_es_energy:           -1.498954
##########           Internal_energy_repulsive:           35.606674

@<TRIPOS>MOLECULE
ZINC001220212140
 53 56 1 0 0
SMALL
USER_CHARGES


@<TRIPOS>ATOM
      1 C1         -8.8958    0.2793   64.5120 C.3     1  ZINC001220212140   -0.1700
      2 C2         -9.9478    1.3488   64.2113 C.3     1  ZINC001220212140    0.0800
      3 H3        -10.2683    1.8417   65.1292 H       1  ZINC001220212140    0.1200
      4 C4         -9.4046    2.3816   63.1957 C.3     1  ZINC001220212140   -0.1100
      5 C5         -9.8815    1.8049   61.8765 C.ar    1  ZINC001220212140   -0.1500
      6 C6         -9.5225    2.0629   60.5729 C.ar    1  ZINC001220212140   -0.0700
      7 C7        -10.1306    1.3663   59.5356 C.ar    1  ZINC001220212140    0.1400
      8 N8         -9.7689    1.6243   58.2064 N.am    1  ZINC001220212140   -0.6800
      9 C9        -10.4380    2.5521   57.4938 C.2     1  ZINC001220212140    0.7200
     10 O10       -11.3554    3.1656   58.0042 O.2     1  ZINC001220212140   -0.5700
     11 N11       -10.0902    2.8002   56.2156 N.am    1  ZINC001220212140   -0.6300
     12 C12       -10.7321    3.7808   55.3278 C.3     1  ZINC001220212140    0.0900
     13 C13        -9.9850    3.7351   53.9784 C.3     1  ZINC001220212140   -0.1100
     14 C14        -8.6062    3.1373   54.3644 C.3     1  ZINC001220212140   -0.1300
     15 H15        -7.9411    3.9084   54.7532 H       1  ZINC001220212140    0.1200
     16 C16        -7.9783    2.4267   53.1932 C.2     1  ZINC001220212140    0.5300
     17 O17        -8.6679    1.7704   52.4416 O.2     1  ZINC001220212140   -0.5100
     18 N18        -6.6507    2.5206   52.9809 N.am    1  ZINC001220212140   -0.5700
     19 C19        -6.0403    1.8299   51.8423 C.3     1  ZINC001220212140    0.0700
     20 C20        -5.8555    3.2778   53.8481 C.ar    1  ZINC001220212140    0.1400
     21 C21        -4.9722    4.2202   53.3379 C.ar    1  ZINC001220212140   -0.1100
     22 C22        -4.1885    4.9661   54.1965 C.ar    1  ZINC001220212140   -0.1100
     23 C23        -4.2825    4.7749   55.5628 C.ar    1  ZINC001220212140   -0.1200
     24 C24        -5.1607    3.8370   56.0739 C.ar    1  ZINC001220212140   -0.1100
     25 C25        -5.9518    3.0926   55.2210 C.ar    1  ZINC001220212140   -0.1200
     26 C26        -8.9991    2.1379   55.4779 C.3     1  ZINC001220212140    0.1400
     27 C27       -11.0977    0.4132   59.8236 C.ar    1  ZINC001220212140   -0.1100
     28 C28       -11.4571    0.1602   61.1308 C.ar    1  ZINC001220212140   -0.1200
     29 C29       -10.8535    0.8579   62.1737 C.ar    1  ZINC001220212140    0.0900
     30 O30       -11.0718    0.7776   63.5206 O.3     1  ZINC001220212140   -0.3000
     31 H31        -8.5985   -0.2089   63.5838 H       1  ZINC001220212140    0.0600
     32 H32        -8.0247    0.7457   64.9723 H       1  ZINC001220212140    0.0800
     33 H33        -9.3146   -0.4608   65.1938 H       1  ZINC001220212140    0.0700
     34 H34        -9.8395    3.3656   63.3705 H       1  ZINC001220212140    0.0900
     35 H35        -8.3161    2.4266   63.2302 H       1  ZINC001220212140    0.0900
     36 H36        -8.7690    2.8058   60.3566 H       1  ZINC001220212140    0.1400
     37 H37        -9.0370    1.1350   57.7992 H       1  ZINC001220212140    0.4100
     38 H38       -11.7797    3.5177   55.1807 H       1  ZINC001220212140    0.0700
     39 H39       -10.6555    4.7784   55.7604 H       1  ZINC001220212140    0.0700
     40 H40       -10.5028    3.0858   53.2725 H       1  ZINC001220212140    0.1000
     41 H41        -9.8690    4.7381   53.5676 H       1  ZINC001220212140    0.0900
     42 H42        -6.0413    2.4892   50.9743 H       1  ZINC001220212140    0.0700
     43 H43        -5.0145    1.5571   52.0901 H       1  ZINC001220212140    0.0800
     44 H44        -6.6109    0.9294   51.6151 H       1  ZINC001220212140    0.0800
     45 H45        -4.8979    4.3695   52.2708 H       1  ZINC001220212140    0.1200
     46 H46        -3.5015    5.6991   53.8002 H       1  ZINC001220212140    0.1300
     47 H47        -3.6684    5.3591   56.2321 H       1  ZINC001220212140    0.1300
     48 H48        -5.2312    3.6896   57.1415 H       1  ZINC001220212140    0.1300
     49 H49        -6.6375    2.3603   55.6208 H       1  ZINC001220212140    0.1200
     50 H50        -8.1508    1.9504   56.1360 H       1  ZINC001220212140    0.0900
     51 H51        -9.3552    1.2047   55.0415 H       1  ZINC001220212140    0.0700
     52 H52       -11.5711   -0.1322   59.0205 H       1  ZINC001220212140    0.1300
     53 H53       -12.2105   -0.5830   61.3467 H       1  ZINC001220212140    0.1300
@<TRIPOS>BOND
     1     1     2    1
     2     1    31    1
     3     1    32    1
     4     1    33    1
     5     2     3    1
     6     2    30    1
     7     2     4    1
     8     4     5    1
     9     4    34    1
    10     4    35    1
    11     5    29   ar
    12     5     6   ar
    13     6     7   ar
    14     6    36    1
    15     7     8    1
    16     7    27   ar
    17     8     9   am
    18     8    37    1
    19     9    10    2
    20     9    11   am
    21    11    26    1
    22    11    12    1
    23    12    13    1
    24    12    38    1
    25    12    39    1
    26    13    14    1
    27    13    40    1
    28    13    41    1
    29    14    15    1
    30    14    16    1
    31    14    26    1
    32    16    17    2
    33    16    18   am
    34    18    19    1
    35    18    20    1
    36    19    42    1
    37    19    43    1
    38    19    44    1
    39    20    25   ar
    40    20    21   ar
    41    21    22   ar
    42    21    45    1
    43    22    23   ar
    44    22    46    1
    45    23    24   ar
    46    23    47    1
    47    24    25   ar
    48    24    48    1
    49    25    49    1
    50    26    50    1
    51    26    51    1
    52    27    28   ar
    53    27    52    1
    54    28    29   ar
    55    28    53    1
    56    29    30    1
@<TRIPOS>SUBSTRUCTURE
     1 ZINC001220212140        1 TEMP              0 ****  ****    0 ROOT


##########                                Name:    ZINC000154446008
##########                DOCK_Rotatable_Bonds:                   5
##########                         Heavy_Atoms:                  24
##########                    Molecular_Weight:              349.41
##########                DOCK_Rotatable_Bonds:                   5
##########                       Formal_Charge:          -0.0199999
##########                     HBond_Acceptors:                   8
##########                        HBond_Donors:                   0
##########                         Heavy_Atoms:                  24
##########                          Grid_Score:          -15.077960
##########                     Grid_vdw_energy:          -13.862723
##########                      Grid_es_energy:           -1.215237
##########           Internal_energy_repulsive:           14.603354

@<TRIPOS>MOLECULE
ZINC000154446008
 43 45 1 0 0
SMALL
USER_CHARGES


@<TRIPOS>ATOM
      1 O1         -7.4180    4.7894   55.9824 O.2     1  ZINC000154446008   -0.5000
      2 C2         -7.7065    3.6661   55.6132 C.2     1  ZINC000154446008    0.5900
      3 C3         -7.2319    3.1767   54.3155 C.2     1  ZINC000154446008   -0.2300
      4 C4         -8.0242    2.8775   53.2432 C.2     1  ZINC000154446008   -0.0600
      5 C5         -7.3162    2.4382   52.1498 C.2     1  ZINC000154446008   -0.0500
      6 C6         -5.9900    2.3789   52.3187 C.2     1  ZINC000154446008   -0.2100
      7 N7         -5.0311    1.9368   51.2812 N.pl3   1  ZINC000154446008    0.0500
      8 O8         -3.8378    1.9158   51.5243 O.2     1  ZINC000154446008   -0.1300
      9 O9         -5.4355    1.5940   50.1846 O.2     1  ZINC000154446008   -0.1500
     10 S10        -5.5513    2.8878   53.8870 S.3     1  ZINC000154446008    0.3500
     11 N11        -8.4576    2.8703   56.3999 N.am    1  ZINC000154446008   -0.6100
     12 C12        -8.8034    1.5074   55.9724 C.3     1  ZINC000154446008    0.0800
     13 C13        -8.3507    0.5235   57.0582 C.3     1  ZINC000154446008    0.0900
     14 N14        -8.8381    1.0028   58.3591 N.am    1  ZINC000154446008   -0.6100
     15 C15        -9.5885    0.2066   59.1463 C.2     1  ZINC000154446008    0.5500
     16 O16        -9.8678   -0.9196   58.7820 O.2     1  ZINC000154446008   -0.5300
     17 C17       -10.0695    0.6998   60.4460 C.2     1  ZINC000154446008   -0.1500
     18 C18        -9.2846    0.5568   61.4920 C.2     1  ZINC000154446008   -0.1100
     19 C19        -9.6500    1.0043   62.8773 C.3     1  ZINC000154446008   -0.1000
     20 C20       -10.8147    1.9950   62.8206 C.3     1  ZINC000154446008   -0.1200
     21 C21       -11.9234    1.3937   61.9481 C.3     1  ZINC000154446008   -0.1200
     22 C22       -11.4246    1.3425   60.5009 C.3     1  ZINC000154446008   -0.0700
     23 C23        -8.4923    2.3657   58.7867 C.3     1  ZINC000154446008    0.1000
     24 C24        -8.9403    3.3477   57.7034 C.3     1  ZINC000154446008    0.1000
     25 H25        -9.0996    2.9763   53.2536 H       1  ZINC000154446008    0.1800
     26 H26        -7.7952    2.1609   51.2224 H       1  ZINC000154446008    0.1800
     27 H27        -9.8820    1.4297   55.8350 H       1  ZINC000154446008    0.0900
     28 H28        -8.2954    1.2779   55.0358 H       1  ZINC000154446008    0.0900
     29 H29        -8.7652   -0.4636   56.8534 H       1  ZINC000154446008    0.1100
     30 H30        -7.2621    0.4700   57.0725 H       1  ZINC000154446008    0.0800
     31 H31        -8.3218    0.0900   61.3457 H       1  ZINC000154446008    0.1100
     32 H32        -9.9410    0.1384   63.4719 H       1  ZINC000154446008    0.0900
     33 H33        -8.7886    1.4855   63.3406 H       1  ZINC000154446008    0.0800
     34 H34       -11.1953    2.1708   63.8268 H       1  ZINC000154446008    0.0700
     35 H35       -10.4752    2.9349   62.3852 H       1  ZINC000154446008    0.0700
     36 H36       -12.1563    0.3868   62.2943 H       1  ZINC000154446008    0.0700
     37 H37       -12.8143    2.0190   62.0055 H       1  ZINC000154446008    0.0700
     38 H38       -11.3667    2.3555   60.1027 H       1  ZINC000154446008    0.0800
     39 H39       -12.1214    0.7592   59.8990 H       1  ZINC000154446008    0.0700
     40 H40        -9.0003    2.5953   59.7233 H       1  ZINC000154446008    0.1100
     41 H41        -7.4137    2.4434   58.9241 H       1  ZINC000154446008    0.0800
     42 H42        -8.5252    4.3342   57.9094 H       1  ZINC000154446008    0.1100
     43 H43       -10.0288    3.4024   57.6867 H       1  ZINC000154446008    0.0800
@<TRIPOS>BOND
     1     1     2    2
     2     2     3    1
     3     2    11   am
     4     3    10    1
     5     3     4    2
     6     4     5    1
     7     4    25    1
     8     5     6    2
     9     5    26    1
    10     6     7    1
    11     6    10    1
    12     7     8    2
    13     7     9    2
    14    11    24    1
    15    11    12    1
    16    12    13    1
    17    12    27    1
    18    12    28    1
    19    13    14    1
    20    13    29    1
    21    13    30    1
    22    14    15   am
    23    14    23    1
    24    15    16    2
    25    15    17    1
    26    17    22    1
    27    17    18    2
    28    18    19    1
    29    18    31    1
    30    19    20    1
    31    19    32    1
    32    19    33    1
    33    20    21    1
    34    20    34    1
    35    20    35    1
    36    21    22    1
    37    21    36    1
    38    21    37    1
    39    22    38    1
    40    22    39    1
    41    23    24    1
    42    23    40    1
    43    23    41    1
    44    24    42    1
    45    24    43    1
@<TRIPOS>SUBSTRUCTURE
     1 ZINC000154446008        1 TEMP              0 ****  ****    0 ROOT


##########                                Name:    ZINC000587344575
##########                DOCK_Rotatable_Bonds:                   7
##########                         Heavy_Atoms:                  30
##########                    Molecular_Weight:             408.475
##########                DOCK_Rotatable_Bonds:                   7
##########                       Formal_Charge:          -0.0100002
##########                     HBond_Acceptors:                   7
##########                        HBond_Donors:                   2
##########                         Heavy_Atoms:                  30
##########                          Grid_Score:          -13.467472
##########                     Grid_vdw_energy:          -14.203085
##########                      Grid_es_energy:            0.735613
##########           Internal_energy_repulsive:           69.051353

@<TRIPOS>MOLECULE
ZINC000587344575
 55 57 1 0 0
SMALL
USER_CHARGES


@<TRIPOS>ATOM
      1 C1         -1.6670    3.4759   58.8539 C.3     1  ZINC000587344575   -0.1200
      2 C2         -2.5466    3.9781   57.7380 C.ar    1  ZINC000587344575    0.0000
      3 C3         -3.8728    4.2576   57.9785 C.ar    1  ZINC000587344575   -0.1600
      4 C4         -4.6855    4.7218   56.9488 C.ar    1  ZINC000587344575    0.1800
      5 N5         -6.0284    5.0044   57.1961 N.am    1  ZINC000587344575   -0.6700
      6 C6         -6.7029    4.3064   58.1311 C.2     1  ZINC000587344575    0.5200
      7 O7         -6.1418    3.4324   58.7573 O.2     1  ZINC000587344575   -0.5000
      8 C8         -8.1543    4.6118   58.3983 C.3     1  ZINC000587344575   -0.1200
      9 H9         -8.4816    5.4536   57.7883 H       1  ZINC000587344575    0.1100
     10 C10        -8.3704    4.9197   59.8978 C.3     1  ZINC000587344575   -0.1200
     11 C11        -9.7250    4.2315   60.2011 C.3     1  ZINC000587344575    0.0400
     12 N12        -9.6644    2.9892   59.3892 N.3     1  ZINC000587344575   -0.4800
     13 C13       -10.9399    2.4723   59.1713 C.ar    1  ZINC000587344575    0.0700
     14 C14       -11.9035    3.2480   58.5360 C.ar    1  ZINC000587344575   -0.1200
     15 C15       -13.1656    2.7408   58.3192 C.ar    1  ZINC000587344575   -0.0700
     16 C16       -13.4783    1.4446   58.7377 C.ar    1  ZINC000587344575    0.0000
     17 C17       -14.7896    0.9149   58.5130 C.1     1  ZINC000587344575    0.2500
     18 N18       -15.8298    0.4946   58.3348 N.1     1  ZINC000587344575   -0.4000
     19 C19       -12.5078    0.6657   59.3760 C.ar    1  ZINC000587344575   -0.1000
     20 C20       -11.2454    1.1771   59.5853 C.ar    1  ZINC000587344575    0.1300
     21 F21       -10.3064    0.4260   60.2013 F       1  ZINC000587344575   -0.1200
     22 C22        -9.0229    3.3733   58.1105 C.3     1  ZINC000587344575    0.0500
     23 C23        -4.1612    4.9051   55.6734 C.ar    1  ZINC000587344575   -0.1400
     24 C24        -2.8355    4.6275   55.4259 C.ar    1  ZINC000587344575   -0.0600
     25 C25        -2.0153    4.1662   56.4590 C.ar    1  ZINC000587344575   -0.1600
     26 C26        -0.5935    3.8680   56.1975 C.2     1  ZINC000587344575    0.5600
     27 O27         0.1169    3.4592   57.0954 O.2     1  ZINC000587344575   -0.5300
     28 N28        -0.0831    4.0489   54.9634 N.am    1  ZINC000587344575   -0.7200
     29 C29         1.3285    3.7546   54.7043 C.3     1  ZINC000587344575    0.1400
     30 C30         1.4985    3.3116   53.2497 C.3     1  ZINC000587344575   -0.1600
     31 C31         2.1659    5.0102   54.9562 C.3     1  ZINC000587344575   -0.1600
     32 H32        -1.1179    4.3115   59.2877 H       1  ZINC000587344575    0.0800
     33 H33        -2.2846    3.0094   59.6213 H       1  ZINC000587344575    0.0600
     34 H34        -0.9625    2.7436   58.4596 H       1  ZINC000587344575    0.1000
     35 H35        -4.2831    4.1161   58.9675 H       1  ZINC000587344575    0.1300
     36 H36        -6.4771    5.7034   56.6952 H       1  ZINC000587344575    0.4100
     37 H37        -7.5731    4.4840   60.5000 H       1  ZINC000587344575    0.0900
     38 H38        -8.4379    5.9946   60.0650 H       1  ZINC000587344575    0.0900
     39 H39        -9.8071    3.9943   61.2618 H       1  ZINC000587344575    0.0900
     40 H40       -10.5560    4.8601   59.8810 H       1  ZINC000587344575    0.0600
     41 H41       -11.6621    4.2498   58.2126 H       1  ZINC000587344575    0.1400
     42 H42       -13.9132    3.3446   57.8264 H       1  ZINC000587344575    0.1400
     43 H43       -12.7461   -0.3364   59.7006 H       1  ZINC000587344575    0.1500
     44 H44        -9.7856    3.6158   57.3705 H       1  ZINC000587344575    0.0600
     45 H45        -8.3974    2.5570   57.7491 H       1  ZINC000587344575    0.1100
     46 H46        -4.7947    5.2651   54.8763 H       1  ZINC000587344575    0.1400
     47 H47        -2.4290    4.7699   54.4355 H       1  ZINC000587344575    0.1300
     48 H48        -0.6502    4.3739   54.2467 H       1  ZINC000587344575    0.4000
     49 H49         1.6612    2.9568   55.3683 H       1  ZINC000587344575    0.0900
     50 H50         1.1659    4.1095   52.5857 H       1  ZINC000587344575    0.0600
     51 H51         2.5487    3.0927   53.0569 H       1  ZINC000587344575    0.0700
     52 H52         0.9020    2.4171   53.0702 H       1  ZINC000587344575    0.0600
     53 H53         1.8332    5.8080   54.2922 H       1  ZINC000587344575    0.0600
     54 H54         2.0447    5.3258   55.9924 H       1  ZINC000587344575    0.0600
     55 H55         3.2161    4.7912   54.7634 H       1  ZINC000587344575    0.0700
@<TRIPOS>BOND
     1     1     2    1
     2     1    32    1
     3     1    33    1
     4     1    34    1
     5     2    25   ar
     6     2     3   ar
     7     3     4   ar
     8     3    35    1
     9     4     5    1
    10     4    23   ar
    11     5     6   am
    12     5    36    1
    13     6     7    2
    14     6     8    1
    15     8     9    1
    16     8    22    1
    17     8    10    1
    18    10    11    1
    19    10    37    1
    20    10    38    1
    21    11    12    1
    22    11    39    1
    23    11    40    1
    24    12    13    1
    25    12    22    1
    26    13    20   ar
    27    13    14   ar
    28    14    15   ar
    29    14    41    1
    30    15    16   ar
    31    15    42    1
    32    16    17    1
    33    16    19   ar
    34    17    18    3
    35    19    20   ar
    36    19    43    1
    37    20    21    1
    38    22    44    1
    39    22    45    1
    40    23    24   ar
    41    23    46    1
    42    24    25   ar
    43    24    47    1
    44    25    26    1
    45    26    27    2
    46    26    28   am
    47    28    29    1
    48    28    48    1
    49    29    30    1
    50    29    31    1
    51    29    49    1
    52    30    50    1
    53    30    51    1
    54    30    52    1
    55    31    53    1
    56    31    54    1
    57    31    55    1
@<TRIPOS>SUBSTRUCTURE
     1 ZINC000587344575        1 TEMP              0 ****  ****    0 ROOT


##########                                Name:     oleObject70.pdb
##########                DOCK_Rotatable_Bonds:                   9
##########                         Heavy_Atoms:                  35
##########                    Molecular_Weight:             504.458
##########                DOCK_Rotatable_Bonds:                   9
##########                       Formal_Charge:          0.00010002
##########                     HBond_Acceptors:                   6
##########                        HBond_Donors:                   2
##########                         Heavy_Atoms:                  35
##########                          Grid_Score:           -4.344257
##########                     Grid_vdw_energy:           -6.105313
##########                      Grid_es_energy:            1.761056
##########           Internal_energy_repulsive:           23.117348

@<TRIPOS>MOLECULE
oleObject70.pdb
 62 65 1 0 0
SMALL
NO_CHARGES


@<TRIPOS>ATOM
      1 C           3.7546    4.7234   64.0335 C.ar    1  UNL        -0.0620
      2 C           3.8948    3.4114   64.5078 C.ar    1  UNL        -0.0590
      3 C           2.8665    2.4662   64.3262 C.ar    1  UNL        -0.0456
      4 C           1.6791    2.8410   63.6470 C.ar    1  UNL        -0.0187
      5 C           1.5475    4.1701   63.1890 C.ar    1  UNL        -0.0565
      6 C           2.5770    5.1039   63.3775 C.ar    1  UNL        -0.0619
      7 C           0.5342    1.8355   63.4297 C.3     1  UNL         0.0909
      8 C          -0.3040    1.5608   64.6902 C.ar    1  UNL         0.0681
      9 C          -0.7040    2.6042   65.5634 C.ar    1  UNL        -0.0272
     10 C          -1.4663    2.2715   66.6992 C.ar    1  UNL        -0.0559
     11 C          -1.8062    0.9302   66.9261 C.ar    1  UNL        -0.0435
     12 C          -1.3747   -0.0369   66.0065 C.ar    1  UNL         0.0272
     13 N          -0.6461    0.2711   64.9177 N.ar    1  UNL        -0.2587
     14 C          -0.3329    4.0622   65.3162 C.3     1  UNL        -0.0379
     15 N          -0.2552    2.1195   62.2109 N.am    1  UNL        -0.2987
     16 C           0.0988    1.8125   60.9028 C.2     1  UNL         0.2437
     17 O           1.1391    1.2440   60.6189 O.2     1  UNL        -0.2719
     18 C          -0.8892    2.2121   59.8330 C.ar    1  UNL         0.0371
     19 C          -2.1238    2.8265   60.1416 C.ar    1  UNL        -0.0494
     20 C          -3.0190    3.1867   59.1209 C.ar    1  UNL        -0.0570
     21 C          -2.7008    2.9410   57.7750 C.ar    1  UNL        -0.0341
     22 C          -1.4747    2.3327   57.4591 C.ar    1  UNL        -0.0570
     23 C          -0.5790    1.9711   58.4784 C.ar    1  UNL        -0.0494
     24 C          -3.6684    3.3385   56.6731 C.3     1  UNL         0.0208
     25 N          -4.8283    2.4392   56.6302 N.4     1  UNL        -0.3086
     26 C          -5.8595    2.8472   55.6669 C.3     1  UNL         0.0223
     27 C          -6.9711    1.8114   55.5668 C.ar    1  UNL        -0.0154
     28 C          -7.5653    1.3212   56.7456 C.ar    1  UNL        -0.0548
     29 C          -8.5957    0.3690   56.6819 C.ar    1  UNL        -0.0431
     30 C          -9.0407   -0.0991   55.4359 C.ar    1  UNL         0.0421
     31 C          -8.4577    0.3853   54.2545 C.ar    1  UNL        -0.0245
     32 C          -7.4266    1.3380   54.3167 C.ar    1  UNL         0.0465
     33 CL         -6.7361    1.9194   52.8124 Cl      1  UNL        -0.0839
     34 CL        -10.3258   -1.2853   55.3551 Cl      1  UNL        -0.0843
     35 C           3.0638    1.0617   64.8883 C.3     1  UNL        -0.0394
     36 H           4.5522    5.4453   64.1833 H       1  UNL         0.0623
     37 H           4.8077    3.1309   65.0258 H       1  UNL         0.0626
     38 H           0.6390    4.4927   62.6916 H       1  UNL         0.0627
     39 H           2.4584    6.1224   63.0193 H       1  UNL         0.0623
     40 H           1.0192    0.8831   63.1958 H       1  UNL         0.0624
     41 H          -1.7888    3.0390   67.3970 H       1  UNL         0.0627
     42 H          -2.3914    0.6451   67.7953 H       1  UNL         0.0639
     43 H          -1.6168   -1.0897   66.1451 H       1  UNL         0.0840
     44 H           0.7518    4.2105   65.3824 H       1  UNL         0.0280
     45 H          -0.7980    4.7270   66.0547 H       1  UNL         0.0280
     46 H          -0.6646    4.3956   64.3255 H       1  UNL         0.0280
     47 H          -1.1391    2.5910   62.3425 H       1  UNL         0.1508
     48 H          -2.4053    3.0324   61.1692 H       1  UNL         0.0631
     49 H          -3.9621    3.6620   59.3765 H       1  UNL         0.0626
     50 H          -1.2128    2.1416   56.4220 H       1  UNL         0.0626
     51 H           0.3634    1.5026   58.2085 H       1  UNL         0.0631
     52 H          -3.1446    3.3156   55.7086 H       1  UNL         0.0479
     53 H          -4.0046    4.3696   56.8435 H       1  UNL         0.0479
     54 H          -5.2435    2.3866   57.5602 H       1  UNL         0.1229
     55 H          -5.4029    2.9850   54.6782 H       1  UNL         0.0480
     56 H          -6.2881    3.8133   55.9634 H       1  UNL         0.0480
     57 H          -7.2299    1.6817   57.7141 H       1  UNL         0.0627
     58 H          -9.0483   -0.0031   57.5967 H       1  UNL         0.0639
     59 H          -8.8058    0.0242   53.2910 H       1  UNL         0.0654
     60 H           3.9677    0.9954   65.5068 H       1  UNL         0.0280
     61 H           3.1639    0.3249   64.0816 H       1  UNL         0.0280
     62 H           2.2176    0.7644   65.5204 H       1  UNL         0.0280
@<TRIPOS>BOND
     1     1     2   ar
     2     1     6   ar
     3     1    36    1
     4     2     3   ar
     5     2    37    1
     6     3     4   ar
     7     3    35    1
     8     4     5   ar
     9     4     7    1
    10     5     6   ar
    11     5    38    1
    12     6    39    1
    13     7     8    1
    14     7    15    1
    15     7    40    1
    16     8     9   ar
    17     8    13   ar
    18     9    10   ar
    19     9    14    1
    20    10    11   ar
    21    10    41    1
    22    11    12   ar
    23    11    42    1
    24    12    13   ar
    25    12    43    1
    26    14    44    1
    27    14    45    1
    28    14    46    1
    29    15    16   am
    30    15    47    1
    31    16    17    2
    32    16    18    1
    33    18    19   ar
    34    18    23   ar
    35    19    20   ar
    36    19    48    1
    37    20    21   ar
    38    20    49    1
    39    21    22   ar
    40    21    24    1
    41    22    23   ar
    42    22    50    1
    43    23    51    1
    44    24    25    1
    45    24    52    1
    46    24    53    1
    47    25    26    1
    48    25    54    1
    49    26    27    1
    50    26    55    1
    51    26    56    1
    52    27    28   ar
    53    27    32   ar
    54    28    29   ar
    55    28    57    1
    56    29    30   ar
    57    29    58    1
    58    30    31   ar
    59    30    34    1
    60    31    32   ar
    61    31    59    1
    62    32    33    1
    63    35    60    1
    64    35    61    1
    65    35    62    1
@<TRIPOS>SUBSTRUCTURE
     1 UNL         1 TEMP              0 ****  ****    0 ROOT

